
simpleFoam has been superseded and replaced by the more general
incompressibleFluid solver module executed by the foamRun application:

    foamRun -solver incompressibleFluid

/*---------------------------------------------------------------------------*\
  =========                 |
  \\      /  F ield         | OpenFOAM: The Open Source CFD Toolbox
   \\    /   O peration     | Website:  https://openfoam.org
    \\  /    A nd           | Version:  dev
     \\/     M anipulation  |
\*---------------------------------------------------------------------------*/
Build  : dev-c8cf725d25ac
Exec   : foamRun -solver incompressibleFluid
Date   : Sep 08 2024
Time   : 14:19:09
Host   : "cfdphoto4.escet.urjc.es"
PID    : 1108721
I/O    : uncollated
Case   : /home/carlos/Desktop/tutorials/incompressible/simpleFoam/motorBike
nProcs : 1
sigFpe : Enabling floating point exception trapping (FOAM_SIGFPE).
fileModificationChecking : Monitoring run-time modified files using timeStampMaster (fileModificationSkew 10)
allowSystemOperations : Allowing user-supplied system call operations

// * * * * * * * * * * * * * * * * * * * * * * * * * * * * * * * * * * * * * //
Create time

Create mesh for time = 0

Selecting solver incompressibleFluid
Selecting viscosity model constant
Selecting turbulence model type RAS
Selecting RAS turbulence model kOmegaSST
Selecting patchDistMethod meshWave
RAS
{
    model           kOmegaSST;
    turbulence      on;
    printCoeffs     on;
    alphaK1         0.85;
    alphaK2         1;
    alphaOmega1     0.5;
    alphaOmega2     0.856;
    gamma1          0.555556;
    gamma2          0.44;
    beta1           0.075;
    beta2           0.0828;
    betaStar        0.09;
    a1              0.31;
    b1              1;
    c1              10;
    F3              false;
}

No MRF models present


SIMPLE: No convergence criteria found


SIMPLE: Operating solver in steady-state mode with 1 outer corrector
SIMPLE: Operating solver in SIMPLE mode



Starting time loop

streamlines streamlines:
    automatic track length specified through number of sub cycles : 5

Reading surface description:
    yNormal

forces forceCoeffs1:
    Not including porosity effects
forceCoeffs forceCoeffs1:
    Not including porosity effects
streamlines streamlines write:
    Seeded 20 particles
    Sampled 18935 locations
forceCoeffs forceCoeffs1 write:
    Cm    = 0.00903083
    Cd    = 0.0223821
    Cl    = 0.000742567
    Cl(f) = 0.00940212
    Cl(r) = -0.00865955

Time = 1s

smoothSolver:  Solving for Ux, Initial residual = 0.0880455, Final residual = 0.00771177, No Iterations 7
smoothSolver:  Solving for Uy, Initial residual = 0.587573, Final residual = 0.0542925, No Iterations 6
smoothSolver:  Solving for Uz, Initial residual = 0.407229, Final residual = 0.0330163, No Iterations 5
nonePCG:  Solving for p, Initial residual = 1, Final residual = 0.00994322, No Iterations 7410
time step continuity errors : sum local = 0.000999316, global = -7.99478e-06, cumulative = -7.99478e-06
smoothSolver:  Solving for omega, Initial residual = 0.00136998, Final residual = 7.84275e-05, No Iterations 2
bounding omega, min: -9.57465 max: 20456.2 average: 188.746
smoothSolver:  Solving for k, Initial residual = 1, Final residual = 0.0306656, No Iterations 2
ExecutionTime = 43.4054 s  ClockTime = 44 s

forceCoeffs forceCoeffs1 write:
    Cm    = 0.563544
    Cd    = 1.33369
    Cl    = -0.0373251
    Cl(f) = 0.544881
    Cl(r) = -0.582207

Time = 2s

smoothSolver:  Solving for Ux, Initial residual = 0.0388412, Final residual = 0.00347153, No Iterations 7
smoothSolver:  Solving for Uy, Initial residual = 0.377708, Final residual = 0.03139, No Iterations 7
smoothSolver:  Solving for Uz, Initial residual = 0.16425, Final residual = 0.012466, No Iterations 7
nonePCG:  Solving for p, Initial residual = 0.0759529, Final residual = 0.000757847, No Iterations 6878
time step continuity errors : sum local = 0.000775897, global = 1.02464e-05, cumulative = 2.25162e-06
smoothSolver:  Solving for omega, Initial residual = 0.00149837, Final residual = 0.000105204, No Iterations 2
bounding omega, min: -5.95332 max: 20456.2 average: 239.022
smoothSolver:  Solving for k, Initial residual = 0.0516867, Final residual = 0.00177727, No Iterations 2
ExecutionTime = 78.1043 s  ClockTime = 78 s

forceCoeffs forceCoeffs1 write:
    Cm    = 0.650457
    Cd    = 1.52711
    Cl    = -0.0525101
    Cl(f) = 0.624202
    Cl(r) = -0.676712

Time = 3s

smoothSolver:  Solving for Ux, Initial residual = 0.020312, Final residual = 0.00199602, No Iterations 7
smoothSolver:  Solving for Uy, Initial residual = 0.292663, Final residual = 0.0249608, No Iterations 7
smoothSolver:  Solving for Uz, Initial residual = 0.110687, Final residual = 0.00889051, No Iterations 7
nonePCG:  Solving for p, Initial residual = 0.051668, Final residual = 0.000515429, No Iterations 5917
time step continuity errors : sum local = 0.000746264, global = -7.60207e-06, cumulative = -5.35045e-06
smoothSolver:  Solving for omega, Initial residual = 0.00112938, Final residual = 7.54693e-05, No Iterations 2
smoothSolver:  Solving for k, Initial residual = 0.0223637, Final residual = 0.000868945, No Iterations 2
ExecutionTime = 108.29 s  ClockTime = 109 s

forceCoeffs forceCoeffs1 write:
    Cm    = 0.571457
    Cd    = 1.33705
    Cl    = -0.0394674
    Cl(f) = 0.551723
    Cl(r) = -0.59119

Time = 4s

smoothSolver:  Solving for Ux, Initial residual = 0.0137672, Final residual = 0.00105642, No Iterations 8
smoothSolver:  Solving for Uy, Initial residual = 0.236377, Final residual = 0.0193104, No Iterations 7
smoothSolver:  Solving for Uz, Initial residual = 0.100589, Final residual = 0.00807625, No Iterations 7
nonePCG:  Solving for p, Initial residual = 0.0448787, Final residual = 0.000447585, No Iterations 5506
time step continuity errors : sum local = 0.000752936, global = -1.85811e-05, cumulative = -2.39316e-05
smoothSolver:  Solving for omega, Initial residual = 0.00102222, Final residual = 7.37567e-05, No Iterations 2
smoothSolver:  Solving for k, Initial residual = 0.0130535, Final residual = 0.000545412, No Iterations 2
ExecutionTime = 136.336 s  ClockTime = 137 s

forceCoeffs forceCoeffs1 write:
    Cm    = 0.464767
    Cd    = 1.08946
    Cl    = -0.0304216
    Cl(f) = 0.449556
    Cl(r) = -0.479978

Time = 5s

smoothSolver:  Solving for Ux, Initial residual = 0.0106381, Final residual = 0.00104396, No Iterations 7
smoothSolver:  Solving for Uy, Initial residual = 0.203137, Final residual = 0.0162344, No Iterations 7
smoothSolver:  Solving for Uz, Initial residual = 0.102929, Final residual = 0.00834433, No Iterations 7
nonePCG:  Solving for p, Initial residual = 0.0406351, Final residual = 0.00040513, No Iterations 5182
time step continuity errors : sum local = 0.000747904, global = -1.03367e-06, cumulative = -2.49653e-05
smoothSolver:  Solving for omega, Initial residual = 0.000932698, Final residual = 6.92992e-05, No Iterations 2
smoothSolver:  Solving for k, Initial residual = 0.00903987, Final residual = 0.000394428, No Iterations 2
ExecutionTime = 162.674 s  ClockTime = 163 s

forceCoeffs forceCoeffs1 write:
    Cm    = 0.378041
    Cd    = 0.892012
    Cl    = -0.0216334
    Cl(f) = 0.367224
    Cl(r) = -0.388858

Time = 6s

smoothSolver:  Solving for Ux, Initial residual = 0.00851674, Final residual = 0.00081772, No Iterations 7
smoothSolver:  Solving for Uy, Initial residual = 0.181546, Final residual = 0.0143725, No Iterations 7
smoothSolver:  Solving for Uz, Initial residual = 0.107443, Final residual = 0.00884764, No Iterations 7
nonePCG:  Solving for p, Initial residual = 0.0365975, Final residual = 0.00036457, No Iterations 4983
time step continuity errors : sum local = 0.000724265, global = 1.51289e-05, cumulative = -9.83635e-06
smoothSolver:  Solving for omega, Initial residual = 0.000850568, Final residual = 6.46011e-05, No Iterations 2
smoothSolver:  Solving for k, Initial residual = 0.00703427, Final residual = 0.000319051, No Iterations 2
ExecutionTime = 188.119 s  ClockTime = 188 s

forceCoeffs forceCoeffs1 write:
    Cm    = 0.31319
    Cd    = 0.744525
    Cl    = -0.00846111
    Cl(f) = 0.30896
    Cl(r) = -0.317421

Time = 7s

smoothSolver:  Solving for Ux, Initial residual = 0.0071422, Final residual = 0.000668112, No Iterations 7
smoothSolver:  Solving for Uy, Initial residual = 0.165, Final residual = 0.013062, No Iterations 7
smoothSolver:  Solving for Uz, Initial residual = 0.117672, Final residual = 0.00966908, No Iterations 7
nonePCG:  Solving for p, Initial residual = 0.0327334, Final residual = 0.000326057, No Iterations 4779
time step continuity errors : sum local = 0.000687579, global = 2.38111e-05, cumulative = 1.39748e-05
smoothSolver:  Solving for omega, Initial residual = 0.000773033, Final residual = 5.93485e-05, No Iterations 2
smoothSolver:  Solving for k, Initial residual = 0.00587273, Final residual = 0.000276499, No Iterations 2
ExecutionTime = 212.745 s  ClockTime = 213 s

forceCoeffs forceCoeffs1 write:
    Cm    = 0.267616
    Cd    = 0.640443
    Cl    = 0.00179888
    Cl(f) = 0.268515
    Cl(r) = -0.266716

Time = 8s

smoothSolver:  Solving for Ux, Initial residual = 0.00613876, Final residual = 0.000573329, No Iterations 7
smoothSolver:  Solving for Uy, Initial residual = 0.147769, Final residual = 0.0116031, No Iterations 7
smoothSolver:  Solving for Uz, Initial residual = 0.127985, Final residual = 0.0104717, No Iterations 7
nonePCG:  Solving for p, Initial residual = 0.0299805, Final residual = 0.000299415, No Iterations 3400
time step continuity errors : sum local = 0.000659345, global = 3.13412e-05, cumulative = 4.5316e-05
smoothSolver:  Solving for omega, Initial residual = 0.000708315, Final residual = 5.44161e-05, No Iterations 2
smoothSolver:  Solving for k, Initial residual = 0.00514368, Final residual = 0.000252415, No Iterations 2
ExecutionTime = 230.444 s  ClockTime = 231 s

forceCoeffs forceCoeffs1 write:
    Cm    = 0.235988
    Cd    = 0.569397
    Cl    = 0.00861111
    Cl(f) = 0.240293
    Cl(r) = -0.231682

Time = 9s

smoothSolver:  Solving for Ux, Initial residual = 0.00539411, Final residual = 0.000515355, No Iterations 7
smoothSolver:  Solving for Uy, Initial residual = 0.131879, Final residual = 0.0102584, No Iterations 7
smoothSolver:  Solving for Uz, Initial residual = 0.135543, Final residual = 0.0110945, No Iterations 7
nonePCG:  Solving for p, Initial residual = 0.0281038, Final residual = 0.000280369, No Iterations 3498
time step continuity errors : sum local = 0.000630316, global = 5.57998e-06, cumulative = 5.0896e-05
smoothSolver:  Solving for omega, Initial residual = 0.000652512, Final residual = 5.00696e-05, No Iterations 2
smoothSolver:  Solving for k, Initial residual = 0.00464907, Final residual = 0.000237614, No Iterations 2
ExecutionTime = 248.596 s  ClockTime = 249 s

forceCoeffs forceCoeffs1 write:
    Cm    = 0.214768
    Cd    = 0.522221
    Cl    = 0.011837
    Cl(f) = 0.220686
    Cl(r) = -0.208849

Time = 10s

smoothSolver:  Solving for Ux, Initial residual = 0.00482837, Final residual = 0.000470567, No Iterations 7
smoothSolver:  Solving for Uy, Initial residual = 0.119634, Final residual = 0.0092194, No Iterations 7
smoothSolver:  Solving for Uz, Initial residual = 0.12456, Final residual = 0.0102384, No Iterations 7
nonePCG:  Solving for p, Initial residual = 0.0263891, Final residual = 0.000263482, No Iterations 3656
time step continuity errors : sum local = 0.000601916, global = -2.79927e-05, cumulative = 2.29033e-05
smoothSolver:  Solving for omega, Initial residual = 0.00060426, Final residual = 4.64547e-05, No Iterations 2
smoothSolver:  Solving for k, Initial residual = 0.004287, Final residual = 0.000228323, No Iterations 2
ExecutionTime = 267.573 s  ClockTime = 268 s

forceCoeffs forceCoeffs1 write:
    Cm    = 0.200794
    Cd    = 0.491171
    Cl    = 0.0131705
    Cl(f) = 0.20738
    Cl(r) = -0.194209

Time = 11s

smoothSolver:  Solving for Ux, Initial residual = 0.00442, Final residual = 0.00043398, No Iterations 7
smoothSolver:  Solving for Uy, Initial residual = 0.107162, Final residual = 0.00825983, No Iterations 7
smoothSolver:  Solving for Uz, Initial residual = 0.11331, Final residual = 0.00932837, No Iterations 7
nonePCG:  Solving for p, Initial residual = 0.0251205, Final residual = 0.000250608, No Iterations 4064
time step continuity errors : sum local = 0.000574675, global = -2.97335e-05, cumulative = -6.83025e-06
smoothSolver:  Solving for omega, Initial residual = 0.000567446, Final residual = 4.3515e-05, No Iterations 2
smoothSolver:  Solving for k, Initial residual = 0.00400623, Final residual = 0.000221342, No Iterations 2
ExecutionTime = 288.562 s  ClockTime = 289 s

forceCoeffs forceCoeffs1 write:
    Cm    = 0.191086
    Cd    = 0.469777
    Cl    = 0.0152606
    Cl(f) = 0.198717
    Cl(r) = -0.183456

Time = 12s

smoothSolver:  Solving for Ux, Initial residual = 0.00412422, Final residual = 0.000406742, No Iterations 7
smoothSolver:  Solving for Uy, Initial residual = 0.0969261, Final residual = 0.00757545, No Iterations 7
smoothSolver:  Solving for Uz, Initial residual = 0.107108, Final residual = 0.00895098, No Iterations 7
nonePCG:  Solving for p, Initial residual = 0.0242203, Final residual = 0.000242098, No Iterations 4202
time step continuity errors : sum local = 0.000549692, global = -1.81296e-05, cumulative = -2.49599e-05
smoothSolver:  Solving for omega, Initial residual = 0.000535877, Final residual = 4.08381e-05, No Iterations 2
smoothSolver:  Solving for k, Initial residual = 0.00377326, Final residual = 0.000215823, No Iterations 2
ExecutionTime = 310.081 s  ClockTime = 310 s

forceCoeffs forceCoeffs1 write:
    Cm    = 0.184466
    Cd    = 0.454626
    Cl    = 0.0202574
    Cl(f) = 0.194595
    Cl(r) = -0.174338

Time = 13s

smoothSolver:  Solving for Ux, Initial residual = 0.00392186, Final residual = 0.00038562, No Iterations 7
smoothSolver:  Solving for Uy, Initial residual = 0.0883799, Final residual = 0.00700403, No Iterations 7
smoothSolver:  Solving for Uz, Initial residual = 0.103366, Final residual = 0.00871831, No Iterations 7
nonePCG:  Solving for p, Initial residual = 0.0236598, Final residual = 0.000235405, No Iterations 3908
time step continuity errors : sum local = 0.00052647, global = -2.57678e-05, cumulative = -5.07277e-05
smoothSolver:  Solving for omega, Initial residual = 0.00050744, Final residual = 3.84362e-05, No Iterations 2
smoothSolver:  Solving for k, Initial residual = 0.00358716, Final residual = 0.000212135, No Iterations 2
ExecutionTime = 330.364 s  ClockTime = 331 s

forceCoeffs forceCoeffs1 write:
    Cm    = 0.180653
    Cd    = 0.444968
    Cl    = 0.0253153
    Cl(f) = 0.193311
    Cl(r) = -0.167996

Time = 14s

smoothSolver:  Solving for Ux, Initial residual = 0.00376609, Final residual = 0.000372296, No Iterations 7
smoothSolver:  Solving for Uy, Initial residual = 0.081301, Final residual = 0.00648543, No Iterations 7
smoothSolver:  Solving for Uz, Initial residual = 0.0990555, Final residual = 0.00832452, No Iterations 7
nonePCG:  Solving for p, Initial residual = 0.0232431, Final residual = 0.000232002, No Iterations 3338
time step continuity errors : sum local = 0.000513415, global = -3.90256e-05, cumulative = -8.97533e-05
smoothSolver:  Solving for omega, Initial residual = 0.000482079, Final residual = 3.63247e-05, No Iterations 2
smoothSolver:  Solving for k, Initial residual = 0.0034415, Final residual = 0.000209173, No Iterations 2
ExecutionTime = 347.773 s  ClockTime = 348 s

forceCoeffs forceCoeffs1 write:
    Cm    = 0.179348
    Cd    = 0.44032
    Cl    = 0.0310296
    Cl(f) = 0.194862
    Cl(r) = -0.163833

Time = 15s

smoothSolver:  Solving for Ux, Initial residual = 0.00362088, Final residual = 0.000361004, No Iterations 7
smoothSolver:  Solving for Uy, Initial residual = 0.075678, Final residual = 0.00608518, No Iterations 7
smoothSolver:  Solving for Uz, Initial residual = 0.0904722, Final residual = 0.00761499, No Iterations 7
nonePCG:  Solving for p, Initial residual = 0.0227145, Final residual = 0.000226988, No Iterations 3240
time step continuity errors : sum local = 0.000498891, global = -3.07299e-05, cumulative = -0.000120483
smoothSolver:  Solving for omega, Initial residual = 0.000456974, Final residual = 3.43386e-05, No Iterations 2
smoothSolver:  Solving for k, Initial residual = 0.00331839, Final residual = 0.000206632, No Iterations 2
ExecutionTime = 364.734 s  ClockTime = 365 s

forceCoeffs forceCoeffs1 write:
    Cm    = 0.179431
    Cd    = 0.438095
    Cl    = 0.036589
    Cl(f) = 0.197726
    Cl(r) = -0.161137

Time = 16s

smoothSolver:  Solving for Ux, Initial residual = 0.00347062, Final residual = 0.000346405, No Iterations 7
smoothSolver:  Solving for Uy, Initial residual = 0.0707653, Final residual = 0.00576969, No Iterations 7
smoothSolver:  Solving for Uz, Initial residual = 0.0823475, Final residual = 0.0069176, No Iterations 7
nonePCG:  Solving for p, Initial residual = 0.0221949, Final residual = 0.000221716, No Iterations 3147
time step continuity errors : sum local = 0.000483508, global = -1.57286e-05, cumulative = -0.000136212
smoothSolver:  Solving for omega, Initial residual = 0.000434148, Final residual = 3.24449e-05, No Iterations 2
smoothSolver:  Solving for k, Initial residual = 0.00320331, Final residual = 0.000204638, No Iterations 2
ExecutionTime = 381.261 s  ClockTime = 382 s

forceCoeffs forceCoeffs1 write:
    Cm    = 0.17989
    Cd    = 0.436841
    Cl    = 0.0423338
    Cl(f) = 0.201057
    Cl(r) = -0.158723

Time = 17s

smoothSolver:  Solving for Ux, Initial residual = 0.0033271, Final residual = 0.000248924, No Iterations 8
smoothSolver:  Solving for Uy, Initial residual = 0.0666057, Final residual = 0.00550328, No Iterations 7
smoothSolver:  Solving for Uz, Initial residual = 0.074886, Final residual = 0.00625533, No Iterations 7
nonePCG:  Solving for p, Initial residual = 0.0215589, Final residual = 0.000215214, No Iterations 3134
time step continuity errors : sum local = 0.00046753, global = -4.06365e-06, cumulative = -0.000140275
smoothSolver:  Solving for omega, Initial residual = 0.000413861, Final residual = 3.0744e-05, No Iterations 2
smoothSolver:  Solving for k, Initial residual = 0.00309529, Final residual = 0.000202357, No Iterations 2
ExecutionTime = 397.678 s  ClockTime = 398 s

forceCoeffs forceCoeffs1 write:
    Cm    = 0.180152
    Cd    = 0.436175
    Cl    = 0.0471675
    Cl(f) = 0.203736
    Cl(r) = -0.156568

Time = 18s

smoothSolver:  Solving for Ux, Initial residual = 0.00317128, Final residual = 0.00023892, No Iterations 8
smoothSolver:  Solving for Uy, Initial residual = 0.0630545, Final residual = 0.00522143, No Iterations 7
smoothSolver:  Solving for Uz, Initial residual = 0.0684292, Final residual = 0.00568678, No Iterations 7
nonePCG:  Solving for p, Initial residual = 0.0208229, Final residual = 0.000208033, No Iterations 3114
time step continuity errors : sum local = 0.000450681, global = 1.64195e-06, cumulative = -0.000138633
smoothSolver:  Solving for omega, Initial residual = 0.000395721, Final residual = 2.92219e-05, No Iterations 2
smoothSolver:  Solving for k, Initial residual = 0.00300688, Final residual = 0.00020023, No Iterations 2
ExecutionTime = 414.046 s  ClockTime = 414 s

forceCoeffs forceCoeffs1 write:
    Cm    = 0.180428
    Cd    = 0.436235
    Cl    = 0.0498929
    Cl(f) = 0.205374
    Cl(r) = -0.155481

Time = 19s

smoothSolver:  Solving for Ux, Initial residual = 0.00301386, Final residual = 0.000226976, No Iterations 8
smoothSolver:  Solving for Uy, Initial residual = 0.0595007, Final residual = 0.00490568, No Iterations 7
smoothSolver:  Solving for Uz, Initial residual = 0.0634291, Final residual = 0.00528768, No Iterations 7
nonePCG:  Solving for p, Initial residual = 0.020146, Final residual = 0.000200976, No Iterations 3040
time step continuity errors : sum local = 0.000435155, global = -4.1581e-06, cumulative = -0.000142792
smoothSolver:  Solving for omega, Initial residual = 0.000378242, Final residual = 2.78577e-05, No Iterations 2
smoothSolver:  Solving for k, Initial residual = 0.00293348, Final residual = 0.00019827, No Iterations 2
ExecutionTime = 430.057 s  ClockTime = 430 s

forceCoeffs forceCoeffs1 write:
    Cm    = 0.180525
    Cd    = 0.435785
    Cl    = 0.0511744
    Cl(f) = 0.206113
    Cl(r) = -0.154938

Time = 20s

smoothSolver:  Solving for Ux, Initial residual = 0.00287348, Final residual = 0.00021558, No Iterations 8
smoothSolver:  Solving for Uy, Initial residual = 0.0562167, Final residual = 0.00464351, No Iterations 7
smoothSolver:  Solving for Uz, Initial residual = 0.0599747, Final residual = 0.00504104, No Iterations 7
nonePCG:  Solving for p, Initial residual = 0.0196388, Final residual = 0.000194969, No Iterations 2995
time step continuity errors : sum local = 0.00042186, global = -1.3675e-05, cumulative = -0.000156467
smoothSolver:  Solving for omega, Initial residual = 0.000363926, Final residual = 2.66512e-05, No Iterations 2
smoothSolver:  Solving for k, Initial residual = 0.00287286, Final residual = 0.00019649, No Iterations 2
ExecutionTime = 445.885 s  ClockTime = 446 s

forceCoeffs forceCoeffs1 write:
    Cm    = 0.180241
    Cd    = 0.434466
    Cl    = 0.0516619
    Cl(f) = 0.206072
    Cl(r) = -0.15441

Time = 21s

smoothSolver:  Solving for Ux, Initial residual = 0.00275785, Final residual = 0.000207945, No Iterations 8
smoothSolver:  Solving for Uy, Initial residual = 0.0533061, Final residual = 0.00444123, No Iterations 7
smoothSolver:  Solving for Uz, Initial residual = 0.0573666, Final residual = 0.00487527, No Iterations 7
nonePCG:  Solving for p, Initial residual = 0.0191168, Final residual = 0.000190667, No Iterations 2953
time step continuity errors : sum local = 0.000411583, global = -2.28485e-05, cumulative = -0.000179315
smoothSolver:  Solving for omega, Initial residual = 0.000350201, Final residual = 2.54717e-05, No Iterations 2
smoothSolver:  Solving for k, Initial residual = 0.00281762, Final residual = 0.000193454, No Iterations 2
ExecutionTime = 461.236 s  ClockTime = 462 s

forceCoeffs forceCoeffs1 write:
    Cm    = 0.179657
    Cd    = 0.432993
    Cl    = 0.0510409
    Cl(f) = 0.205177
    Cl(r) = -0.154136

Time = 22s

smoothSolver:  Solving for Ux, Initial residual = 0.00265979, Final residual = 0.000200752, No Iterations 8
smoothSolver:  Solving for Uy, Initial residual = 0.0509842, Final residual = 0.00429976, No Iterations 7
smoothSolver:  Solving for Uz, Initial residual = 0.0550028, Final residual = 0.00471098, No Iterations 7
nonePCG:  Solving for p, Initial residual = 0.0185116, Final residual = 0.00018446, No Iterations 2926
time step continuity errors : sum local = 0.000396802, global = -2.89337e-05, cumulative = -0.000208249
smoothSolver:  Solving for omega, Initial residual = 0.000336976, Final residual = 2.43492e-05, No Iterations 2
smoothSolver:  Solving for k, Initial residual = 0.00274891, Final residual = 0.000189948, No Iterations 2
ExecutionTime = 476.587 s  ClockTime = 477 s

forceCoeffs forceCoeffs1 write:
    Cm    = 0.178575
    Cd    = 0.431381
    Cl    = 0.0501712
    Cl(f) = 0.20366
    Cl(r) = -0.153489

Time = 23s

smoothSolver:  Solving for Ux, Initial residual = 0.00256671, Final residual = 0.000194074, No Iterations 8
smoothSolver:  Solving for Uy, Initial residual = 0.0492196, Final residual = 0.00421602, No Iterations 7
smoothSolver:  Solving for Uz, Initial residual = 0.0529733, Final residual = 0.0045565, No Iterations 7
nonePCG:  Solving for p, Initial residual = 0.0179017, Final residual = 0.000178521, No Iterations 3121
time step continuity errors : sum local = 0.000382532, global = -2.53643e-05, cumulative = -0.000233613
smoothSolver:  Solving for omega, Initial residual = 0.000323376, Final residual = 2.32414e-05, No Iterations 2
smoothSolver:  Solving for k, Initial residual = 0.00267644, Final residual = 0.000186271, No Iterations 2
ExecutionTime = 492.82 s  ClockTime = 493 s

forceCoeffs forceCoeffs1 write:
    Cm    = 0.176881
    Cd    = 0.429427
    Cl    = 0.0490932
    Cl(f) = 0.201427
    Cl(r) = -0.152334

Time = 24s

smoothSolver:  Solving for Ux, Initial residual = 0.00247306, Final residual = 0.000186431, No Iterations 8
smoothSolver:  Solving for Uy, Initial residual = 0.0481483, Final residual = 0.00415648, No Iterations 7
smoothSolver:  Solving for Uz, Initial residual = 0.0509859, Final residual = 0.00439887, No Iterations 7
nonePCG:  Solving for p, Initial residual = 0.017294, Final residual = 0.000172918, No Iterations 3191
time step continuity errors : sum local = 0.000368234, global = -2.31407e-05, cumulative = -0.000256754
smoothSolver:  Solving for omega, Initial residual = 0.000309025, Final residual = 2.22143e-05, No Iterations 2
smoothSolver:  Solving for k, Initial residual = 0.0026179, Final residual = 0.000183268, No Iterations 2
ExecutionTime = 509.55 s  ClockTime = 510 s

forceCoeffs forceCoeffs1 write:
    Cm    = 0.174584
    Cd    = 0.426834
    Cl    = 0.0482674
    Cl(f) = 0.198718
    Cl(r) = -0.150451

Time = 25s

smoothSolver:  Solving for Ux, Initial residual = 0.00237363, Final residual = 0.000178079, No Iterations 8
smoothSolver:  Solving for Uy, Initial residual = 0.04696, Final residual = 0.00404415, No Iterations 7
smoothSolver:  Solving for Uz, Initial residual = 0.0486512, Final residual = 0.00421353, No Iterations 7
nonePCG:  Solving for p, Initial residual = 0.0167193, Final residual = 0.000166575, No Iterations 3138
time step continuity errors : sum local = 0.000352577, global = -2.36444e-05, cumulative = -0.000280398
smoothSolver:  Solving for omega, Initial residual = 0.000297536, Final residual = 2.14296e-05, No Iterations 2
smoothSolver:  Solving for k, Initial residual = 0.0025821, Final residual = 0.000182105, No Iterations 2
ExecutionTime = 525.96 s  ClockTime = 526 s

forceCoeffs forceCoeffs1 write:
    Cm    = 0.171593
    Cd    = 0.423753
    Cl    = 0.0479677
    Cl(f) = 0.195577
    Cl(r) = -0.147609

Time = 26s

smoothSolver:  Solving for Ux, Initial residual = 0.00227816, Final residual = 0.000169795, No Iterations 8
smoothSolver:  Solving for Uy, Initial residual = 0.045796, Final residual = 0.00392247, No Iterations 7
smoothSolver:  Solving for Uz, Initial residual = 0.0463474, Final residual = 0.00399454, No Iterations 7
nonePCG:  Solving for p, Initial residual = 0.016235, Final residual = 0.000161206, No Iterations 3055
time step continuity errors : sum local = 0.000339032, global = -2.20195e-05, cumulative = -0.000302418
smoothSolver:  Solving for omega, Initial residual = 0.000287078, Final residual = 2.06474e-05, No Iterations 2
smoothSolver:  Solving for k, Initial residual = 0.00254165, Final residual = 0.000180499, No Iterations 2
ExecutionTime = 541.931 s  ClockTime = 542 s

forceCoeffs forceCoeffs1 write:
    Cm    = 0.168668
    Cd    = 0.421211
    Cl    = 0.0488145
    Cl(f) = 0.193075
    Cl(r) = -0.144261

Time = 27s

smoothSolver:  Solving for Ux, Initial residual = 0.00215581, Final residual = 0.000160788, No Iterations 8
smoothSolver:  Solving for Uy, Initial residual = 0.0442622, Final residual = 0.00376315, No Iterations 7
smoothSolver:  Solving for Uz, Initial residual = 0.0437797, Final residual = 0.00374139, No Iterations 7
nonePCG:  Solving for p, Initial residual = 0.015802, Final residual = 0.000157169, No Iterations 3009
time step continuity errors : sum local = 0.000328495, global = -2.04884e-05, cumulative = -0.000322906
smoothSolver:  Solving for omega, Initial residual = 0.00027674, Final residual = 1.98279e-05, No Iterations 2
smoothSolver:  Solving for k, Initial residual = 0.00250324, Final residual = 0.000177856, No Iterations 2
ExecutionTime = 557.739 s  ClockTime = 558 s

forceCoeffs forceCoeffs1 write:
    Cm    = 0.165916
    Cd    = 0.418785
    Cl    = 0.0503111
    Cl(f) = 0.191071
    Cl(r) = -0.14076

Time = 28s

smoothSolver:  Solving for Ux, Initial residual = 0.00203856, Final residual = 0.00015273, No Iterations 8
smoothSolver:  Solving for Uy, Initial residual = 0.0422946, Final residual = 0.00357367, No Iterations 7
smoothSolver:  Solving for Uz, Initial residual = 0.0408576, Final residual = 0.00345766, No Iterations 7
nonePCG:  Solving for p, Initial residual = 0.0153781, Final residual = 0.000153332, No Iterations 2963
time step continuity errors : sum local = 0.000318876, global = -1.92312e-05, cumulative = -0.000342137
smoothSolver:  Solving for omega, Initial residual = 0.000266926, Final residual = 1.91061e-05, No Iterations 2
smoothSolver:  Solving for k, Initial residual = 0.0024681, Final residual = 0.000176086, No Iterations 2
ExecutionTime = 573.274 s  ClockTime = 574 s

forceCoeffs forceCoeffs1 write:
    Cm    = 0.163455
    Cd    = 0.416531
    Cl    = 0.0525229
    Cl(f) = 0.189717
    Cl(r) = -0.137194

Time = 29s

smoothSolver:  Solving for Ux, Initial residual = 0.00192204, Final residual = 0.000144089, No Iterations 8
smoothSolver:  Solving for Uy, Initial residual = 0.0398538, Final residual = 0.00333261, No Iterations 7
smoothSolver:  Solving for Uz, Initial residual = 0.0379608, Final residual = 0.00318073, No Iterations 7
nonePCG:  Solving for p, Initial residual = 0.0148695, Final residual = 0.000148317, No Iterations 2971
time step continuity errors : sum local = 0.000306899, global = -1.77297e-05, cumulative = -0.000359867
smoothSolver:  Solving for omega, Initial residual = 0.000257326, Final residual = 1.8436e-05, No Iterations 2
smoothSolver:  Solving for k, Initial residual = 0.00243926, Final residual = 0.000174945, No Iterations 2
ExecutionTime = 588.935 s  ClockTime = 589 s

forceCoeffs forceCoeffs1 write:
    Cm    = 0.161402
    Cd    = 0.414406
    Cl    = 0.0549164
    Cl(f) = 0.18886
    Cl(r) = -0.133944

Time = 30s

smoothSolver:  Solving for Ux, Initial residual = 0.00181772, Final residual = 0.000181267, No Iterations 7
smoothSolver:  Solving for Uy, Initial residual = 0.037284, Final residual = 0.003085, No Iterations 7
smoothSolver:  Solving for Uz, Initial residual = 0.0353438, Final residual = 0.0029278, No Iterations 7
nonePCG:  Solving for p, Initial residual = 0.0143992, Final residual = 0.000143603, No Iterations 3019
time step continuity errors : sum local = 0.000295799, global = -1.61833e-05, cumulative = -0.00037605
smoothSolver:  Solving for omega, Initial residual = 0.000248671, Final residual = 1.78153e-05, No Iterations 2
smoothSolver:  Solving for k, Initial residual = 0.00242205, Final residual = 0.00017425, No Iterations 2
ExecutionTime = 604.624 s  ClockTime = 605 s

forceCoeffs forceCoeffs1 write:
    Cm    = 0.159869
    Cd    = 0.41257
    Cl    = 0.0569997
    Cl(f) = 0.188369
    Cl(r) = -0.131369

Time = 31s

smoothSolver:  Solving for Ux, Initial residual = 0.00172729, Final residual = 0.000169373, No Iterations 7
smoothSolver:  Solving for Uy, Initial residual = 0.034841, Final residual = 0.00283165, No Iterations 7
smoothSolver:  Solving for Uz, Initial residual = 0.0331311, Final residual = 0.00269686, No Iterations 7
nonePCG:  Solving for p, Initial residual = 0.0139494, Final residual = 0.000139372, No Iterations 3084
time step continuity errors : sum local = 0.000285838, global = -1.48474e-05, cumulative = -0.000390898
smoothSolver:  Solving for omega, Initial residual = 0.000240182, Final residual = 1.71961e-05, No Iterations 2
smoothSolver:  Solving for k, Initial residual = 0.00240837, Final residual = 0.00017358, No Iterations 2
ExecutionTime = 620.662 s  ClockTime = 621 s

forceCoeffs forceCoeffs1 write:
    Cm    = 0.158633
    Cd    = 0.41096
    Cl    = 0.0587999
    Cl(f) = 0.188033
    Cl(r) = -0.129233

Time = 32s

smoothSolver:  Solving for Ux, Initial residual = 0.00163905, Final residual = 0.000158029, No Iterations 7
smoothSolver:  Solving for Uy, Initial residual = 0.0328187, Final residual = 0.0026134, No Iterations 7
smoothSolver:  Solving for Uz, Initial residual = 0.031319, Final residual = 0.00249529, No Iterations 7
nonePCG:  Solving for p, Initial residual = 0.0135351, Final residual = 0.000135127, No Iterations 3057
time step continuity errors : sum local = 0.000275767, global = -1.50745e-05, cumulative = -0.000405972
smoothSolver:  Solving for omega, Initial residual = 0.000232384, Final residual = 1.66065e-05, No Iterations 2
smoothSolver:  Solving for k, Initial residual = 0.00238224, Final residual = 0.000171973, No Iterations 2
ExecutionTime = 636.685 s  ClockTime = 637 s

forceCoeffs forceCoeffs1 write:
    Cm    = 0.157611
    Cd    = 0.409685
    Cl    = 0.0604747
    Cl(f) = 0.187849
    Cl(r) = -0.127374

Time = 33s

smoothSolver:  Solving for Ux, Initial residual = 0.00154914, Final residual = 0.000147123, No Iterations 7
smoothSolver:  Solving for Uy, Initial residual = 0.0311777, Final residual = 0.00244092, No Iterations 7
smoothSolver:  Solving for Uz, Initial residual = 0.029764, Final residual = 0.00233361, No Iterations 7
nonePCG:  Solving for p, Initial residual = 0.0131073, Final residual = 0.000130899, No Iterations 3201
time step continuity errors : sum local = 0.000265821, global = -1.1534e-05, cumulative = -0.000417506
smoothSolver:  Solving for omega, Initial residual = 0.000225172, Final residual = 1.60852e-05, No Iterations 2
smoothSolver:  Solving for k, Initial residual = 0.00235401, Final residual = 0.000169919, No Iterations 2
ExecutionTime = 653.501 s  ClockTime = 654 s

forceCoeffs forceCoeffs1 write:
    Cm    = 0.156915
    Cd    = 0.408875
    Cl    = 0.0619148
    Cl(f) = 0.187872
    Cl(r) = -0.125958

Time = 34s

smoothSolver:  Solving for Ux, Initial residual = 0.00146567, Final residual = 0.000137624, No Iterations 7
smoothSolver:  Solving for Uy, Initial residual = 0.0300894, Final residual = 0.00232409, No Iterations 7
smoothSolver:  Solving for Uz, Initial residual = 0.0284557, Final residual = 0.00218974, No Iterations 7
nonePCG:  Solving for p, Initial residual = 0.0127691, Final residual = 0.000127647, No Iterations 3245
time step continuity errors : sum local = 0.000257894, global = -9.27894e-06, cumulative = -0.000426785
smoothSolver:  Solving for omega, Initial residual = 0.000218622, Final residual = 1.55726e-05, No Iterations 2
smoothSolver:  Solving for k, Initial residual = 0.00231513, Final residual = 0.000167378, No Iterations 2
ExecutionTime = 670.369 s  ClockTime = 671 s

forceCoeffs forceCoeffs1 write:
    Cm    = 0.156523
    Cd    = 0.408392
    Cl    = 0.0632394
    Cl(f) = 0.188143
    Cl(r) = -0.124903

Time = 35s

smoothSolver:  Solving for Ux, Initial residual = 0.00139567, Final residual = 0.000129584, No Iterations 7
smoothSolver:  Solving for Uy, Initial residual = 0.0293071, Final residual = 0.00224353, No Iterations 7
smoothSolver:  Solving for Uz, Initial residual = 0.027283, Final residual = 0.00205418, No Iterations 7
nonePCG:  Solving for p, Initial residual = 0.0124252, Final residual = 0.000123573, No Iterations 2999
time step continuity errors : sum local = 0.000248349, global = -1.30921e-05, cumulative = -0.000439877
smoothSolver:  Solving for omega, Initial residual = 0.000212604, Final residual = 1.51304e-05, No Iterations 2
smoothSolver:  Solving for k, Initial residual = 0.00228044, Final residual = 0.000165314, No Iterations 2
ExecutionTime = 686.16 s  ClockTime = 687 s

forceCoeffs forceCoeffs1 write:
    Cm    = 0.156352
    Cd    = 0.407957
    Cl    = 0.0641401
    Cl(f) = 0.188422
    Cl(r) = -0.124281

Time = 36s

smoothSolver:  Solving for Ux, Initial residual = 0.00133241, Final residual = 0.000122127, No Iterations 7
smoothSolver:  Solving for Uy, Initial residual = 0.0285864, Final residual = 0.0021688, No Iterations 7
smoothSolver:  Solving for Uz, Initial residual = 0.0261507, Final residual = 0.00192888, No Iterations 7
nonePCG:  Solving for p, Initial residual = 0.0120411, Final residual = 0.000120288, No Iterations 2958
time step continuity errors : sum local = 0.000240516, global = -1.18589e-05, cumulative = -0.000451736
smoothSolver:  Solving for omega, Initial residual = 0.00020608, Final residual = 1.46237e-05, No Iterations 2
smoothSolver:  Solving for k, Initial residual = 0.00225143, Final residual = 0.000163553, No Iterations 2
ExecutionTime = 701.654 s  ClockTime = 702 s

forceCoeffs forceCoeffs1 write:
    Cm    = 0.156372
    Cd    = 0.407488
    Cl    = 0.0649889
    Cl(f) = 0.188866
    Cl(r) = -0.123878

Time = 37s

smoothSolver:  Solving for Ux, Initial residual = 0.00126949, Final residual = 0.000115607, No Iterations 7
smoothSolver:  Solving for Uy, Initial residual = 0.0277541, Final residual = 0.00209677, No Iterations 7
smoothSolver:  Solving for Uz, Initial residual = 0.025078, Final residual = 0.00250072, No Iterations 6
nonePCG:  Solving for p, Initial residual = 0.0116653, Final residual = 0.00011635, No Iterations 2917
time step continuity errors : sum local = 0.000231402, global = -1.02669e-05, cumulative = -0.000462003
smoothSolver:  Solving for omega, Initial residual = 0.000199922, Final residual = 1.4143e-05, No Iterations 2
smoothSolver:  Solving for k, Initial residual = 0.00222612, Final residual = 0.000161124, No Iterations 2
ExecutionTime = 716.96 s  ClockTime = 717 s

forceCoeffs forceCoeffs1 write:
    Cm    = 0.156619
    Cd    = 0.407117
    Cl    = 0.0652697
    Cl(f) = 0.189254
    Cl(r) = -0.123984

Time = 38s

smoothSolver:  Solving for Ux, Initial residual = 0.00121246, Final residual = 0.000110178, No Iterations 7
smoothSolver:  Solving for Uy, Initial residual = 0.0268662, Final residual = 0.00200992, No Iterations 7
smoothSolver:  Solving for Uz, Initial residual = 0.0241095, Final residual = 0.00176828, No Iterations 7
nonePCG:  Solving for p, Initial residual = 0.0112797, Final residual = 0.000112764, No Iterations 2643
time step continuity errors : sum local = 0.000223028, global = -1.4975e-05, cumulative = -0.000476978
smoothSolver:  Solving for omega, Initial residual = 0.000192883, Final residual = 1.36455e-05, No Iterations 2
smoothSolver:  Solving for k, Initial residual = 0.00218177, Final residual = 0.000158348, No Iterations 2
ExecutionTime = 730.82 s  ClockTime = 731 s

forceCoeffs forceCoeffs1 write:
    Cm    = 0.157169
    Cd    = 0.406907
    Cl    = 0.0651408
    Cl(f) = 0.18974
    Cl(r) = -0.124599

Time = 39s

smoothSolver:  Solving for Ux, Initial residual = 0.0011599, Final residual = 0.000104846, No Iterations 7
smoothSolver:  Solving for Uy, Initial residual = 0.0260372, Final residual = 0.00193547, No Iterations 7
smoothSolver:  Solving for Uz, Initial residual = 0.0231038, Final residual = 0.00169562, No Iterations 7
nonePCG:  Solving for p, Initial residual = 0.0108661, Final residual = 0.000108525, No Iterations 2531
time step continuity errors : sum local = 0.000213785, global = -1.6487e-05, cumulative = -0.000493465
smoothSolver:  Solving for omega, Initial residual = 0.000186352, Final residual = 1.31825e-05, No Iterations 2
smoothSolver:  Solving for k, Initial residual = 0.00213754, Final residual = 0.000155879, No Iterations 2
ExecutionTime = 744.241 s  ClockTime = 745 s

forceCoeffs forceCoeffs1 write:
    Cm    = 0.157796
    Cd    = 0.406691
    Cl    = 0.0643518
    Cl(f) = 0.189972
    Cl(r) = -0.12562

Time = 40s

smoothSolver:  Solving for Ux, Initial residual = 0.00111584, Final residual = 0.000100107, No Iterations 7
smoothSolver:  Solving for Uy, Initial residual = 0.0252346, Final residual = 0.00187052, No Iterations 7
smoothSolver:  Solving for Uz, Initial residual = 0.0222253, Final residual = 0.00221408, No Iterations 6
nonePCG:  Solving for p, Initial residual = 0.0104461, Final residual = 0.000104275, No Iterations 2432
time step continuity errors : sum local = 0.000204573, global = -1.56796e-05, cumulative = -0.000509145
smoothSolver:  Solving for omega, Initial residual = 0.00017952, Final residual = 1.27276e-05, No Iterations 2
smoothSolver:  Solving for k, Initial residual = 0.00209175, Final residual = 0.000153678, No Iterations 2
ExecutionTime = 757.09 s  ClockTime = 757 s

forceCoeffs forceCoeffs1 write:
    Cm    = 0.158448
    Cd    = 0.406414
    Cl    = 0.0633644
    Cl(f) = 0.19013
    Cl(r) = -0.126766

Time = 41s

smoothSolver:  Solving for Ux, Initial residual = 0.00107516, Final residual = 9.65217e-05, No Iterations 7
smoothSolver:  Solving for Uy, Initial residual = 0.0243549, Final residual = 0.00180031, No Iterations 7
smoothSolver:  Solving for Uz, Initial residual = 0.0215678, Final residual = 0.00215632, No Iterations 6
nonePCG:  Solving for p, Initial residual = 0.0100501, Final residual = 9.97943e-05, No Iterations 2450
time step continuity errors : sum local = 0.000195051, global = -1.27921e-05, cumulative = -0.000521937
smoothSolver:  Solving for omega, Initial residual = 0.000173254, Final residual = 1.22797e-05, No Iterations 2
smoothSolver:  Solving for k, Initial residual = 0.0020505, Final residual = 0.000151616, No Iterations 2
ExecutionTime = 770.016 s  ClockTime = 770 s

forceCoeffs forceCoeffs1 write:
    Cm    = 0.159089
    Cd    = 0.406271
    Cl    = 0.0622592
    Cl(f) = 0.190219
    Cl(r) = -0.12796

Time = 42s

smoothSolver:  Solving for Ux, Initial residual = 0.00104261, Final residual = 9.40568e-05, No Iterations 7
smoothSolver:  Solving for Uy, Initial residual = 0.0234184, Final residual = 0.0017312, No Iterations 7
smoothSolver:  Solving for Uz, Initial residual = 0.0211699, Final residual = 0.00155409, No Iterations 7
nonePCG:  Solving for p, Initial residual = 0.00974726, Final residual = 9.73333e-05, No Iterations 2418
time step continuity errors : sum local = 0.000189577, global = -8.95887e-06, cumulative = -0.000530896
smoothSolver:  Solving for omega, Initial residual = 0.00016745, Final residual = 1.1855e-05, No Iterations 2
smoothSolver:  Solving for k, Initial residual = 0.00202164, Final residual = 0.00015005, No Iterations 2
ExecutionTime = 782.913 s  ClockTime = 783 s

forceCoeffs forceCoeffs1 write:
    Cm    = 0.159731
    Cd    = 0.406326
    Cl    = 0.0612885
    Cl(f) = 0.190375
    Cl(r) = -0.129086

Time = 43s

smoothSolver:  Solving for Ux, Initial residual = 0.00101417, Final residual = 9.20161e-05, No Iterations 7
smoothSolver:  Solving for Uy, Initial residual = 0.0224727, Final residual = 0.00166839, No Iterations 7
smoothSolver:  Solving for Uz, Initial residual = 0.0207179, Final residual = 0.00207094, No Iterations 6
nonePCG:  Solving for p, Initial residual = 0.00943145, Final residual = 9.40906e-05, No Iterations 2355
time step continuity errors : sum local = 0.000182708, global = -4.95981e-06, cumulative = -0.000535855
smoothSolver:  Solving for omega, Initial residual = 0.000162256, Final residual = 1.14599e-05, No Iterations 2
smoothSolver:  Solving for k, Initial residual = 0.0019987, Final residual = 0.000148591, No Iterations 2
ExecutionTime = 795.379 s  ClockTime = 796 s

forceCoeffs forceCoeffs1 write:
    Cm    = 0.160337
    Cd    = 0.406654
    Cl    = 0.0604466
    Cl(f) = 0.19056
    Cl(r) = -0.130113

Time = 44s

smoothSolver:  Solving for Ux, Initial residual = 0.000988056, Final residual = 9.0267e-05, No Iterations 7
smoothSolver:  Solving for Uy, Initial residual = 0.0213332, Final residual = 0.00159857, No Iterations 7
smoothSolver:  Solving for Uz, Initial residual = 0.0202099, Final residual = 0.0014947, No Iterations 7
nonePCG:  Solving for p, Initial residual = 0.00914546, Final residual = 9.07195e-05, No Iterations 2372
time step continuity errors : sum local = 0.000175734, global = -8.02295e-07, cumulative = -0.000536658
smoothSolver:  Solving for omega, Initial residual = 0.000157362, Final residual = 1.10863e-05, No Iterations 2
smoothSolver:  Solving for k, Initial residual = 0.00197682, Final residual = 0.000147098, No Iterations 2
ExecutionTime = 808.006 s  ClockTime = 808 s

forceCoeffs forceCoeffs1 write:
    Cm    = 0.160914
    Cd    = 0.407131
    Cl    = 0.059781
    Cl(f) = 0.190805
    Cl(r) = -0.131024

Time = 45s

smoothSolver:  Solving for Ux, Initial residual = 0.000956648, Final residual = 8.87233e-05, No Iterations 7
smoothSolver:  Solving for Uy, Initial residual = 0.0201794, Final residual = 0.0015378, No Iterations 7
smoothSolver:  Solving for Uz, Initial residual = 0.0195399, Final residual = 0.00145858, No Iterations 7
nonePCG:  Solving for p, Initial residual = 0.00885161, Final residual = 8.75106e-05, No Iterations 2459
time step continuity errors : sum local = 0.000169205, global = 2.5901e-06, cumulative = -0.000534068
smoothSolver:  Solving for omega, Initial residual = 0.000152633, Final residual = 1.07321e-05, No Iterations 2
smoothSolver:  Solving for k, Initial residual = 0.00195171, Final residual = 0.000144996, No Iterations 2
ExecutionTime = 820.98 s  ClockTime = 821 s

forceCoeffs forceCoeffs1 write:
    Cm    = 0.161412
    Cd    = 0.407748
    Cl    = 0.059398
    Cl(f) = 0.191111
    Cl(r) = -0.131713

Time = 46s

smoothSolver:  Solving for Ux, Initial residual = 0.000925885, Final residual = 8.71875e-05, No Iterations 7
smoothSolver:  Solving for Uy, Initial residual = 0.019111, Final residual = 0.00148174, No Iterations 7
smoothSolver:  Solving for Uz, Initial residual = 0.0187821, Final residual = 0.00141954, No Iterations 7
nonePCG:  Solving for p, Initial residual = 0.00853363, Final residual = 8.52916e-05, No Iterations 2505
time step continuity errors : sum local = 0.000164645, global = 4.15578e-06, cumulative = -0.000529912
smoothSolver:  Solving for omega, Initial residual = 0.00014802, Final residual = 1.03684e-05, No Iterations 2
smoothSolver:  Solving for k, Initial residual = 0.00191618, Final residual = 0.000142001, No Iterations 2
ExecutionTime = 834.165 s  ClockTime = 835 s

forceCoeffs forceCoeffs1 write:
    Cm    = 0.161728
    Cd    = 0.408219
    Cl    = 0.0593136
    Cl(f) = 0.191385
    Cl(r) = -0.132072

Time = 47s

smoothSolver:  Solving for Ux, Initial residual = 0.000897792, Final residual = 8.63917e-05, No Iterations 7
smoothSolver:  Solving for Uy, Initial residual = 0.0182354, Final residual = 0.00143148, No Iterations 7
smoothSolver:  Solving for Uz, Initial residual = 0.0179237, Final residual = 0.00137182, No Iterations 7
nonePCG:  Solving for p, Initial residual = 0.0082182, Final residual = 8.18473e-05, No Iterations 2550
time step continuity errors : sum local = 0.000157822, global = 4.85799e-06, cumulative = -0.000525054
smoothSolver:  Solving for omega, Initial residual = 0.000142974, Final residual = 9.98545e-06, No Iterations 2
smoothSolver:  Solving for k, Initial residual = 0.0018657, Final residual = 0.000138587, No Iterations 2
ExecutionTime = 847.624 s  ClockTime = 848 s

forceCoeffs forceCoeffs1 write:
    Cm    = 0.161829
    Cd    = 0.408526
    Cl    = 0.0593153
    Cl(f) = 0.191487
    Cl(r) = -0.132171

Time = 48s

smoothSolver:  Solving for Ux, Initial residual = 0.000875337, Final residual = 8.57669e-05, No Iterations 7
smoothSolver:  Solving for Uy, Initial residual = 0.0175955, Final residual = 0.00140016, No Iterations 7
smoothSolver:  Solving for Uz, Initial residual = 0.0171077, Final residual = 0.00132802, No Iterations 7
nonePCG:  Solving for p, Initial residual = 0.00790712, Final residual = 7.90147e-05, No Iterations 2513
time step continuity errors : sum local = 0.00015225, global = 4.34566e-06, cumulative = -0.000520708
smoothSolver:  Solving for omega, Initial residual = 0.000137771, Final residual = 9.62959e-06, No Iterations 2
smoothSolver:  Solving for k, Initial residual = 0.00180601, Final residual = 0.000134976, No Iterations 2
ExecutionTime = 860.912 s  ClockTime = 861 s

forceCoeffs forceCoeffs1 write:
    Cm    = 0.161753
    Cd    = 0.408526
    Cl    = 0.0593778
    Cl(f) = 0.191442
    Cl(r) = -0.132064

Time = 49s

smoothSolver:  Solving for Ux, Initial residual = 0.000855056, Final residual = 8.47355e-05, No Iterations 7
smoothSolver:  Solving for Uy, Initial residual = 0.0171211, Final residual = 0.00137144, No Iterations 7
smoothSolver:  Solving for Uz, Initial residual = 0.0162662, Final residual = 0.00128339, No Iterations 7
nonePCG:  Solving for p, Initial residual = 0.00762769, Final residual = 7.58836e-05, No Iterations 2354
time step continuity errors : sum local = 0.000146155, global = 2.21727e-06, cumulative = -0.000518491
smoothSolver:  Solving for omega, Initial residual = 0.000132527, Final residual = 9.30303e-06, No Iterations 2
smoothSolver:  Solving for k, Initial residual = 0.00174574, Final residual = 0.0001312, No Iterations 2
ExecutionTime = 873.456 s  ClockTime = 874 s

forceCoeffs forceCoeffs1 write:
    Cm    = 0.161512
    Cd    = 0.408408
    Cl    = 0.0595115
    Cl(f) = 0.191268
    Cl(r) = -0.131756

Time = 50s

smoothSolver:  Solving for Ux, Initial residual = 0.000835655, Final residual = 8.33558e-05, No Iterations 7
smoothSolver:  Solving for Uy, Initial residual = 0.016745, Final residual = 0.0013412, No Iterations 7
smoothSolver:  Solving for Uz, Initial residual = 0.0155028, Final residual = 0.00123903, No Iterations 7
nonePCG:  Solving for p, Initial residual = 0.00738278, Final residual = 7.2918e-05, No Iterations 2175
time step continuity errors : sum local = 0.000140372, global = -4.2411e-07, cumulative = -0.000518915
smoothSolver:  Solving for omega, Initial residual = 0.000127802, Final residual = 8.98129e-06, No Iterations 2
smoothSolver:  Solving for k, Initial residual = 0.00168757, Final residual = 0.0001274, No Iterations 2
ExecutionTime = 885.188 s  ClockTime = 886 s

forceCoeffs forceCoeffs1 write:
    Cm    = 0.161146
    Cd    = 0.408126
    Cl    = 0.0597756
    Cl(f) = 0.191034
    Cl(r) = -0.131258

Time = 51s

smoothSolver:  Solving for Ux, Initial residual = 0.000815016, Final residual = 6.12197e-05, No Iterations 8
smoothSolver:  Solving for Uy, Initial residual = 0.0163256, Final residual = 0.00128996, No Iterations 7
smoothSolver:  Solving for Uz, Initial residual = 0.0148569, Final residual = 0.00118636, No Iterations 7
nonePCG:  Solving for p, Initial residual = 0.00713606, Final residual = 7.08017e-05, No Iterations 2226
time step continuity errors : sum local = 0.000136231, global = -3.41642e-06, cumulative = -0.000522331
smoothSolver:  Solving for omega, Initial residual = 0.00012349, Final residual = 8.65706e-06, No Iterations 2
smoothSolver:  Solving for k, Initial residual = 0.00163434, Final residual = 0.000123839, No Iterations 2
ExecutionTime = 897.147 s  ClockTime = 898 s

forceCoeffs forceCoeffs1 write:
    Cm    = 0.1606
    Cd    = 0.407855
    Cl    = 0.0601154
    Cl(f) = 0.190658
    Cl(r) = -0.130542

Time = 52s

smoothSolver:  Solving for Ux, Initial residual = 0.000789748, Final residual = 5.9446e-05, No Iterations 8
smoothSolver:  Solving for Uy, Initial residual = 0.0158517, Final residual = 0.00122714, No Iterations 7
smoothSolver:  Solving for Uz, Initial residual = 0.0143881, Final residual = 0.0011384, No Iterations 7
nonePCG:  Solving for p, Initial residual = 0.00688093, Final residual = 6.87832e-05, No Iterations 2441
time step continuity errors : sum local = 0.000132228, global = -6.91632e-06, cumulative = -0.000529248
smoothSolver:  Solving for omega, Initial residual = 0.000118927, Final residual = 8.33953e-06, No Iterations 2
smoothSolver:  Solving for k, Initial residual = 0.0015869, Final residual = 0.000120656, No Iterations 2
ExecutionTime = 910.24 s  ClockTime = 911 s

forceCoeffs forceCoeffs1 write:
    Cm    = 0.159998
    Cd    = 0.40759
    Cl    = 0.0607416
    Cl(f) = 0.190369
    Cl(r) = -0.129627

Time = 53s

smoothSolver:  Solving for Ux, Initial residual = 0.000761893, Final residual = 7.6166e-05, No Iterations 7
smoothSolver:  Solving for Uy, Initial residual = 0.0153371, Final residual = 0.00116259, No Iterations 7
smoothSolver:  Solving for Uz, Initial residual = 0.0139391, Final residual = 0.00109396, No Iterations 7
nonePCG:  Solving for p, Initial residual = 0.00664852, Final residual = 6.61456e-05, No Iterations 2792
time step continuity errors : sum local = 0.000127014, global = -7.19949e-06, cumulative = -0.000536447
smoothSolver:  Solving for omega, Initial residual = 0.000114543, Final residual = 8.04106e-06, No Iterations 2
smoothSolver:  Solving for k, Initial residual = 0.00154309, Final residual = 0.000117811, No Iterations 2
ExecutionTime = 924.927 s  ClockTime = 925 s

forceCoeffs forceCoeffs1 write:
    Cm    = 0.159283
    Cd    = 0.407327
    Cl    = 0.0615683
    Cl(f) = 0.190067
    Cl(r) = -0.128498

Time = 54s

smoothSolver:  Solving for Ux, Initial residual = 0.000734984, Final residual = 7.23102e-05, No Iterations 7
smoothSolver:  Solving for Uy, Initial residual = 0.0148318, Final residual = 0.00110445, No Iterations 7
smoothSolver:  Solving for Uz, Initial residual = 0.0135502, Final residual = 0.00104842, No Iterations 7
nonePCG:  Solving for p, Initial residual = 0.00645334, Final residual = 6.45225e-05, No Iterations 3063
time step continuity errors : sum local = 0.000123653, global = -4.99082e-06, cumulative = -0.000541438
smoothSolver:  Solving for omega, Initial residual = 0.000110746, Final residual = 7.76312e-06, No Iterations 2
smoothSolver:  Solving for k, Initial residual = 0.00150361, Final residual = 0.00011528, No Iterations 2
ExecutionTime = 940.929 s  ClockTime = 941 s

forceCoeffs forceCoeffs1 write:
    Cm    = 0.158535
    Cd    = 0.406933
    Cl    = 0.0628239
    Cl(f) = 0.189947
    Cl(r) = -0.127123

Time = 55s

smoothSolver:  Solving for Ux, Initial residual = 0.000709242, Final residual = 6.83432e-05, No Iterations 7
smoothSolver:  Solving for Uy, Initial residual = 0.0144179, Final residual = 0.00106551, No Iterations 7
smoothSolver:  Solving for Uz, Initial residual = 0.013183, Final residual = 0.00101635, No Iterations 7
nonePCG:  Solving for p, Initial residual = 0.00628848, Final residual = 6.26617e-05, No Iterations 2982
time step continuity errors : sum local = 0.000119828, global = -4.71232e-06, cumulative = -0.00054615
smoothSolver:  Solving for omega, Initial residual = 0.000106989, Final residual = 7.50117e-06, No Iterations 2
smoothSolver:  Solving for k, Initial residual = 0.00146744, Final residual = 0.000112959, No Iterations 2
ExecutionTime = 956.578 s  ClockTime = 957 s

forceCoeffs forceCoeffs1 write:
    Cm    = 0.157832
    Cd    = 0.406612
    Cl    = 0.0640161
    Cl(f) = 0.18984
    Cl(r) = -0.125824

Time = 56s

smoothSolver:  Solving for Ux, Initial residual = 0.000682968, Final residual = 6.44956e-05, No Iterations 7
smoothSolver:  Solving for Uy, Initial residual = 0.0140869, Final residual = 0.00103341, No Iterations 7
smoothSolver:  Solving for Uz, Initial residual = 0.0128364, Final residual = 0.000991088, No Iterations 7
nonePCG:  Solving for p, Initial residual = 0.00613647, Final residual = 6.10766e-05, No Iterations 2625
time step continuity errors : sum local = 0.000116586, global = -5.46854e-06, cumulative = -0.000551619
smoothSolver:  Solving for omega, Initial residual = 0.0001034, Final residual = 7.25129e-06, No Iterations 2
smoothSolver:  Solving for k, Initial residual = 0.00143183, Final residual = 0.000110638, No Iterations 2
ExecutionTime = 970.371 s  ClockTime = 971 s

forceCoeffs forceCoeffs1 write:
    Cm    = 0.15731
    Cd    = 0.406322
    Cl    = 0.0651016
    Cl(f) = 0.189861
    Cl(r) = -0.124759

Time = 57s

smoothSolver:  Solving for Ux, Initial residual = 0.000658424, Final residual = 6.07908e-05, No Iterations 7
smoothSolver:  Solving for Uy, Initial residual = 0.0137973, Final residual = 0.00136643, No Iterations 6
smoothSolver:  Solving for Uz, Initial residual = 0.0125203, Final residual = 0.000961839, No Iterations 7
nonePCG:  Solving for p, Initial residual = 0.00598481, Final residual = 5.94207e-05, No Iterations 2535
time step continuity errors : sum local = 0.000113268, global = -5.05328e-06, cumulative = -0.000556672
smoothSolver:  Solving for omega, Initial residual = 0.000100056, Final residual = 7.02987e-06, No Iterations 2
smoothSolver:  Solving for k, Initial residual = 0.00139795, Final residual = 0.00010842, No Iterations 2
ExecutionTime = 983.822 s  ClockTime = 984 s

forceCoeffs forceCoeffs1 write:
    Cm    = 0.156816
    Cd    = 0.405994
    Cl    = 0.0657892
    Cl(f) = 0.189711
    Cl(r) = -0.123921

Time = 58s

smoothSolver:  Solving for Ux, Initial residual = 0.000634972, Final residual = 5.7165e-05, No Iterations 7
smoothSolver:  Solving for Uy, Initial residual = 0.0135452, Final residual = 0.00132562, No Iterations 6
smoothSolver:  Solving for Uz, Initial residual = 0.0122779, Final residual = 0.000928553, No Iterations 7
nonePCG:  Solving for p, Initial residual = 0.0058872, Final residual = 5.88379e-05, No Iterations 2297
time step continuity errors : sum local = 0.000112008, global = -4.10624e-06, cumulative = -0.000560779
smoothSolver:  Solving for omega, Initial residual = 9.68796e-05, Final residual = 6.8066e-06, No Iterations 2
smoothSolver:  Solving for k, Initial residual = 0.0013665, Final residual = 0.00010611, No Iterations 2
ExecutionTime = 996.037 s  ClockTime = 996 s

forceCoeffs forceCoeffs1 write:
    Cm    = 0.15646
    Cd    = 0.405743
    Cl    = 0.066255
    Cl(f) = 0.189588
    Cl(r) = -0.123333

Time = 59s

smoothSolver:  Solving for Ux, Initial residual = 0.000612733, Final residual = 5.40367e-05, No Iterations 7
smoothSolver:  Solving for Uy, Initial residual = 0.0133047, Final residual = 0.00129051, No Iterations 6
smoothSolver:  Solving for Uz, Initial residual = 0.012169, Final residual = 0.000901043, No Iterations 7
nonePCG:  Solving for p, Initial residual = 0.00579023, Final residual = 5.75246e-05, No Iterations 2233
time step continuity errors : sum local = 0.000109382, global = -3.02727e-06, cumulative = -0.000563806
smoothSolver:  Solving for omega, Initial residual = 9.36779e-05, Final residual = 6.57141e-06, No Iterations 2
smoothSolver:  Solving for k, Initial residual = 0.00133963, Final residual = 0.000103864, No Iterations 2
ExecutionTime = 1007.98 s  ClockTime = 1008 s

forceCoeffs forceCoeffs1 write:
    Cm    = 0.156223
    Cd    = 0.405648
    Cl    = 0.0662385
    Cl(f) = 0.189342
    Cl(r) = -0.123103

Time = 60s

smoothSolver:  Solving for Ux, Initial residual = 0.00059126, Final residual = 5.20191e-05, No Iterations 7
smoothSolver:  Solving for Uy, Initial residual = 0.0130559, Final residual = 0.00125089, No Iterations 6
smoothSolver:  Solving for Uz, Initial residual = 0.0120612, Final residual = 0.00119484, No Iterations 6
nonePCG:  Solving for p, Initial residual = 0.0056702, Final residual = 5.66431e-05, No Iterations 2184
time step continuity errors : sum local = 0.000107603, global = -1.81018e-06, cumulative = -0.000565616
smoothSolver:  Solving for omega, Initial residual = 9.06886e-05, Final residual = 6.35791e-06, No Iterations 2
smoothSolver:  Solving for k, Initial residual = 0.00131402, Final residual = 0.000101752, No Iterations 2
ExecutionTime = 1019.68 s  ClockTime = 1020 s

forceCoeffs forceCoeffs1 write:
    Cm    = 0.156223
    Cd    = 0.405868
    Cl    = 0.0660902
    Cl(f) = 0.189268
    Cl(r) = -0.123178

Time = 61s

smoothSolver:  Solving for Ux, Initial residual = 0.000569465, Final residual = 5.03199e-05, No Iterations 7
smoothSolver:  Solving for Uy, Initial residual = 0.0126984, Final residual = 0.00120631, No Iterations 6
smoothSolver:  Solving for Uz, Initial residual = 0.0119457, Final residual = 0.00118209, No Iterations 6
nonePCG:  Solving for p, Initial residual = 0.00550433, Final residual = 5.47776e-05, No Iterations 2205
time step continuity errors : sum local = 0.000103974, global = -1.22962e-06, cumulative = -0.000566846
smoothSolver:  Solving for omega, Initial residual = 8.77166e-05, Final residual = 6.14999e-06, No Iterations 2
smoothSolver:  Solving for k, Initial residual = 0.00128584, Final residual = 9.96233e-05, No Iterations 2
ExecutionTime = 1031.5 s  ClockTime = 1032 s

forceCoeffs forceCoeffs1 write:
    Cm    = 0.156297
    Cd    = 0.406326
    Cl    = 0.0657317
    Cl(f) = 0.189163
    Cl(r) = -0.123431

Time = 62s

smoothSolver:  Solving for Ux, Initial residual = 0.000546926, Final residual = 4.88184e-05, No Iterations 7
smoothSolver:  Solving for Uy, Initial residual = 0.0122495, Final residual = 0.00116782, No Iterations 6
smoothSolver:  Solving for Uz, Initial residual = 0.011717, Final residual = 0.000871329, No Iterations 7
nonePCG:  Solving for p, Initial residual = 0.00531194, Final residual = 5.28444e-05, No Iterations 2218
time step continuity errors : sum local = 0.000100238, global = -7.95701e-07, cumulative = -0.000567641
smoothSolver:  Solving for omega, Initial residual = 8.4928e-05, Final residual = 5.96298e-06, No Iterations 2
smoothSolver:  Solving for k, Initial residual = 0.00125235, Final residual = 9.73991e-05, No Iterations 2
ExecutionTime = 1043.4 s  ClockTime = 1044 s

forceCoeffs forceCoeffs1 write:
    Cm    = 0.156465
    Cd    = 0.406928
    Cl    = 0.0654203
    Cl(f) = 0.189175
    Cl(r) = -0.123755

Time = 63s

smoothSolver:  Solving for Ux, Initial residual = 0.000527127, Final residual = 4.78346e-05, No Iterations 7
smoothSolver:  Solving for Uy, Initial residual = 0.0117904, Final residual = 0.00113849, No Iterations 6
smoothSolver:  Solving for Uz, Initial residual = 0.0113247, Final residual = 0.000850141, No Iterations 7
nonePCG:  Solving for p, Initial residual = 0.00507515, Final residual = 5.073e-05, No Iterations 2156
time step continuity errors : sum local = 9.618e-05, global = -5.30013e-07, cumulative = -0.000568171
smoothSolver:  Solving for omega, Initial residual = 8.23171e-05, Final residual = 5.78113e-06, No Iterations 2
smoothSolver:  Solving for k, Initial residual = 0.00121794, Final residual = 9.49697e-05, No Iterations 2
ExecutionTime = 1054.91 s  ClockTime = 1055 s

forceCoeffs forceCoeffs1 write:
    Cm    = 0.156586
    Cd    = 0.407575
    Cl    = 0.0651383
    Cl(f) = 0.189155
    Cl(r) = -0.124017

Time = 64s

smoothSolver:  Solving for Ux, Initial residual = 0.00050943, Final residual = 4.72125e-05, No Iterations 7
smoothSolver:  Solving for Uy, Initial residual = 0.011333, Final residual = 0.00110591, No Iterations 6
smoothSolver:  Solving for Uz, Initial residual = 0.0108281, Final residual = 0.000819707, No Iterations 7
nonePCG:  Solving for p, Initial residual = 0.0048446, Final residual = 4.8432e-05, No Iterations 2168
time step continuity errors : sum local = 9.18014e-05, global = 1.19718e-07, cumulative = -0.000568052
smoothSolver:  Solving for omega, Initial residual = 7.99902e-05, Final residual = 5.60712e-06, No Iterations 2
smoothSolver:  Solving for k, Initial residual = 0.00118765, Final residual = 9.2652e-05, No Iterations 2
ExecutionTime = 1066.48 s  ClockTime = 1067 s

forceCoeffs forceCoeffs1 write:
    Cm    = 0.156747
    Cd    = 0.408168
    Cl    = 0.0650104
    Cl(f) = 0.189253
    Cl(r) = -0.124242

Time = 65s

smoothSolver:  Solving for Ux, Initial residual = 0.000494422, Final residual = 4.65075e-05, No Iterations 7
smoothSolver:  Solving for Uy, Initial residual = 0.0108717, Final residual = 0.00107417, No Iterations 6
smoothSolver:  Solving for Uz, Initial residual = 0.0103408, Final residual = 0.000789333, No Iterations 7
nonePCG:  Solving for p, Initial residual = 0.00465996, Final residual = 4.65653e-05, No Iterations 2239
time step continuity errors : sum local = 8.8256e-05, global = 1.63408e-06, cumulative = -0.000566417
smoothSolver:  Solving for omega, Initial residual = 7.78566e-05, Final residual = 5.46466e-06, No Iterations 2
smoothSolver:  Solving for k, Initial residual = 0.00115863, Final residual = 9.05721e-05, No Iterations 2
ExecutionTime = 1078.56 s  ClockTime = 1079 s

forceCoeffs forceCoeffs1 write:
    Cm    = 0.156851
    Cd    = 0.408692
    Cl    = 0.0648401
    Cl(f) = 0.189271
    Cl(r) = -0.124431

Time = 66s

smoothSolver:  Solving for Ux, Initial residual = 0.000480587, Final residual = 4.56681e-05, No Iterations 7
smoothSolver:  Solving for Uy, Initial residual = 0.0104414, Final residual = 0.000773822, No Iterations 7
smoothSolver:  Solving for Uz, Initial residual = 0.00993382, Final residual = 0.000762257, No Iterations 7
nonePCG:  Solving for p, Initial residual = 0.00451753, Final residual = 4.51489e-05, No Iterations 2497
time step continuity errors : sum local = 8.55814e-05, global = 3.57525e-06, cumulative = -0.000562842
smoothSolver:  Solving for omega, Initial residual = 7.61192e-05, Final residual = 5.33884e-06, No Iterations 2
smoothSolver:  Solving for k, Initial residual = 0.00113032, Final residual = 8.84922e-05, No Iterations 2
ExecutionTime = 1091.78 s  ClockTime = 1092 s

forceCoeffs forceCoeffs1 write:
    Cm    = 0.156967
    Cd    = 0.409087
    Cl    = 0.0646113
    Cl(f) = 0.189273
    Cl(r) = -0.124662

Time = 67s

smoothSolver:  Solving for Ux, Initial residual = 0.00046873, Final residual = 4.48689e-05, No Iterations 7
smoothSolver:  Solving for Uy, Initial residual = 0.00997343, Final residual = 0.000749413, No Iterations 7
smoothSolver:  Solving for Uz, Initial residual = 0.00959104, Final residual = 0.000738553, No Iterations 7
nonePCG:  Solving for p, Initial residual = 0.00439609, Final residual = 4.38309e-05, No Iterations 2642
time step continuity errors : sum local = 8.3124e-05, global = 4.71049e-06, cumulative = -0.000558132
smoothSolver:  Solving for omega, Initial residual = 7.44559e-05, Final residual = 5.21571e-06, No Iterations 2
smoothSolver:  Solving for k, Initial residual = 0.00110179, Final residual = 8.63356e-05, No Iterations 2
ExecutionTime = 1105.7 s  ClockTime = 1106 s

forceCoeffs forceCoeffs1 write:
    Cm    = 0.157082
    Cd    = 0.409428
    Cl    = 0.0642367
    Cl(f) = 0.1892
    Cl(r) = -0.124963

Time = 68s

smoothSolver:  Solving for Ux, Initial residual = 0.000458437, Final residual = 4.42124e-05, No Iterations 7
smoothSolver:  Solving for Uy, Initial residual = 0.00961492, Final residual = 0.00072832, No Iterations 7
smoothSolver:  Solving for Uz, Initial residual = 0.0092619, Final residual = 0.000712568, No Iterations 7
nonePCG:  Solving for p, Initial residual = 0.00430752, Final residual = 4.30097e-05, No Iterations 2702
time step continuity errors : sum local = 8.16417e-05, global = 4.69058e-06, cumulative = -0.000553441
smoothSolver:  Solving for omega, Initial residual = 7.31253e-05, Final residual = 5.09284e-06, No Iterations 2
smoothSolver:  Solving for k, Initial residual = 0.00107272, Final residual = 8.41519e-05, No Iterations 2
ExecutionTime = 1119.98 s  ClockTime = 1120 s

forceCoeffs forceCoeffs1 write:
    Cm    = 0.157261
    Cd    = 0.409816
    Cl    = 0.0637999
    Cl(f) = 0.189161
    Cl(r) = -0.125361

Time = 69s

smoothSolver:  Solving for Ux, Initial residual = 0.000449082, Final residual = 4.32464e-05, No Iterations 7
smoothSolver:  Solving for Uy, Initial residual = 0.00937232, Final residual = 0.000708518, No Iterations 7
smoothSolver:  Solving for Uz, Initial residual = 0.00897377, Final residual = 0.000681335, No Iterations 7
nonePCG:  Solving for p, Initial residual = 0.00421657, Final residual = 4.21296e-05, No Iterations 2739
time step continuity errors : sum local = 8.00568e-05, global = 3.9784e-06, cumulative = -0.000549463
smoothSolver:  Solving for omega, Initial residual = 7.16692e-05, Final residual = 4.97932e-06, No Iterations 2
smoothSolver:  Solving for k, Initial residual = 0.00104312, Final residual = 8.19605e-05, No Iterations 2
ExecutionTime = 1134.44 s  ClockTime = 1135 s

forceCoeffs forceCoeffs1 write:
    Cm    = 0.157398
    Cd    = 0.410162
    Cl    = 0.0634125
    Cl(f) = 0.189104
    Cl(r) = -0.125692

Time = 70s

smoothSolver:  Solving for Ux, Initial residual = 0.000438606, Final residual = 4.16268e-05, No Iterations 7
smoothSolver:  Solving for Uy, Initial residual = 0.00914325, Final residual = 0.000687175, No Iterations 7
smoothSolver:  Solving for Uz, Initial residual = 0.00869873, Final residual = 0.000646938, No Iterations 7
nonePCG:  Solving for p, Initial residual = 0.00412579, Final residual = 4.11876e-05, No Iterations 2654
time step continuity errors : sum local = 7.83507e-05, global = 3.05276e-06, cumulative = -0.00054641
smoothSolver:  Solving for omega, Initial residual = 7.02064e-05, Final residual = 4.88593e-06, No Iterations 2
smoothSolver:  Solving for k, Initial residual = 0.00101382, Final residual = 7.9797e-05, No Iterations 2
ExecutionTime = 1148.44 s  ClockTime = 1149 s

forceCoeffs forceCoeffs1 write:
    Cm    = 0.157543
    Cd    = 0.410536
    Cl    = 0.0631453
    Cl(f) = 0.189115
    Cl(r) = -0.12597

Time = 71s

smoothSolver:  Solving for Ux, Initial residual = 0.000427696, Final residual = 3.93695e-05, No Iterations 7
smoothSolver:  Solving for Uy, Initial residual = 0.00893893, Final residual = 0.000659664, No Iterations 7
smoothSolver:  Solving for Uz, Initial residual = 0.00841947, Final residual = 0.000830183, No Iterations 6
nonePCG:  Solving for p, Initial residual = 0.00402425, Final residual = 4.02085e-05, No Iterations 2566
time step continuity errors : sum local = 7.65554e-05, global = 1.52614e-06, cumulative = -0.000544884
smoothSolver:  Solving for omega, Initial residual = 6.86726e-05, Final residual = 4.7792e-06, No Iterations 2
smoothSolver:  Solving for k, Initial residual = 0.000986023, Final residual = 7.77537e-05, No Iterations 2
ExecutionTime = 1162.02 s  ClockTime = 1162 s

forceCoeffs forceCoeffs1 write:
    Cm    = 0.157586
    Cd    = 0.410769
    Cl    = 0.063126
    Cl(f) = 0.189149
    Cl(r) = -0.126023

Time = 72s

smoothSolver:  Solving for Ux, Initial residual = 0.000412266, Final residual = 3.68175e-05, No Iterations 7
smoothSolver:  Solving for Uy, Initial residual = 0.00871159, Final residual = 0.000850304, No Iterations 6
smoothSolver:  Solving for Uz, Initial residual = 0.00815376, Final residual = 0.000791688, No Iterations 6
nonePCG:  Solving for p, Initial residual = 0.00392839, Final residual = 3.92753e-05, No Iterations 2562
time step continuity errors : sum local = 7.48251e-05, global = -2.12907e-07, cumulative = -0.000545097
smoothSolver:  Solving for omega, Initial residual = 6.68414e-05, Final residual = 4.65009e-06, No Iterations 2
smoothSolver:  Solving for k, Initial residual = 0.00095891, Final residual = 7.57409e-05, No Iterations 2
ExecutionTime = 1175.23 s  ClockTime = 1176 s

forceCoeffs forceCoeffs1 write:
    Cm    = 0.157554
    Cd    = 0.410901
    Cl    = 0.0633267
    Cl(f) = 0.189217
    Cl(r) = -0.12589

Time = 73s

smoothSolver:  Solving for Ux, Initial residual = 0.000394159, Final residual = 3.40444e-05, No Iterations 7
smoothSolver:  Solving for Uy, Initial residual = 0.00848652, Final residual = 0.000804439, No Iterations 6
smoothSolver:  Solving for Uz, Initial residual = 0.00787192, Final residual = 0.00075271, No Iterations 6
nonePCG:  Solving for p, Initial residual = 0.00384782, Final residual = 3.84592e-05, No Iterations 2554
time step continuity errors : sum local = 7.32969e-05, global = -1.74014e-06, cumulative = -0.000546837
smoothSolver:  Solving for omega, Initial residual = 6.47033e-05, Final residual = 4.5209e-06, No Iterations 2
smoothSolver:  Solving for k, Initial residual = 0.000931596, Final residual = 7.38436e-05, No Iterations 2
ExecutionTime = 1188.74 s  ClockTime = 1189 s

forceCoeffs forceCoeffs1 write:
    Cm    = 0.157485
    Cd    = 0.410949
    Cl    = 0.063791
    Cl(f) = 0.18938
    Cl(r) = -0.125589

Time = 74s

smoothSolver:  Solving for Ux, Initial residual = 0.000374941, Final residual = 3.15855e-05, No Iterations 7
smoothSolver:  Solving for Uy, Initial residual = 0.0082355, Final residual = 0.000761864, No Iterations 6
smoothSolver:  Solving for Uz, Initial residual = 0.00760412, Final residual = 0.000715742, No Iterations 6
nonePCG:  Solving for p, Initial residual = 0.00375515, Final residual = 3.74431e-05, No Iterations 2432
time step continuity errors : sum local = 7.13702e-05, global = -2.8969e-06, cumulative = -0.000549734
smoothSolver:  Solving for omega, Initial residual = 6.28303e-05, Final residual = 4.39929e-06, No Iterations 2
smoothSolver:  Solving for k, Initial residual = 0.000905028, Final residual = 7.20373e-05, No Iterations 2
ExecutionTime = 1201.69 s  ClockTime = 1202 s

forceCoeffs forceCoeffs1 write:
    Cm    = 0.157395
    Cd    = 0.410992
    Cl    = 0.0643367
    Cl(f) = 0.189563
    Cl(r) = -0.125226

Time = 75s

smoothSolver:  Solving for Ux, Initial residual = 0.000358085, Final residual = 2.98264e-05, No Iterations 7
smoothSolver:  Solving for Uy, Initial residual = 0.00792913, Final residual = 0.000716973, No Iterations 6
smoothSolver:  Solving for Uz, Initial residual = 0.00737732, Final residual = 0.000683876, No Iterations 6
nonePCG:  Solving for p, Initial residual = 0.00366146, Final residual = 3.65192e-05, No Iterations 2389
time step continuity errors : sum local = 6.9606e-05, global = -3.84038e-06, cumulative = -0.000553574
smoothSolver:  Solving for omega, Initial residual = 6.10965e-05, Final residual = 4.28441e-06, No Iterations 2
smoothSolver:  Solving for k, Initial residual = 0.000881575, Final residual = 7.02767e-05, No Iterations 2
ExecutionTime = 1214.41 s  ClockTime = 1215 s

forceCoeffs forceCoeffs1 write:
    Cm    = 0.157367
    Cd    = 0.411127
    Cl    = 0.0649081
    Cl(f) = 0.189821
    Cl(r) = -0.124913

Time = 76s

smoothSolver:  Solving for Ux, Initial residual = 0.000344777, Final residual = 2.88541e-05, No Iterations 7
smoothSolver:  Solving for Uy, Initial residual = 0.00764944, Final residual = 0.000678641, No Iterations 6
smoothSolver:  Solving for Uz, Initial residual = 0.00720037, Final residual = 0.000652953, No Iterations 6
nonePCG:  Solving for p, Initial residual = 0.00358116, Final residual = 3.5786e-05, No Iterations 2378
time step continuity errors : sum local = 6.82006e-05, global = -4.2806e-06, cumulative = -0.000557855
smoothSolver:  Solving for omega, Initial residual = 5.95339e-05, Final residual = 4.16932e-06, No Iterations 2
smoothSolver:  Solving for k, Initial residual = 0.000861016, Final residual = 6.86872e-05, No Iterations 2
ExecutionTime = 1226.99 s  ClockTime = 1227 s

forceCoeffs forceCoeffs1 write:
    Cm    = 0.157403
    Cd    = 0.411364
    Cl    = 0.0654512
    Cl(f) = 0.190129
    Cl(r) = -0.124678

Time = 77s

smoothSolver:  Solving for Ux, Initial residual = 0.000334271, Final residual = 2.8195e-05, No Iterations 7
smoothSolver:  Solving for Uy, Initial residual = 0.00744997, Final residual = 0.000656428, No Iterations 6
smoothSolver:  Solving for Uz, Initial residual = 0.00706391, Final residual = 0.000628632, No Iterations 6
nonePCG:  Solving for p, Initial residual = 0.00350708, Final residual = 3.49764e-05, No Iterations 2357
time step continuity errors : sum local = 6.66417e-05, global = -4.46705e-06, cumulative = -0.000562322
smoothSolver:  Solving for omega, Initial residual = 5.81549e-05, Final residual = 4.07307e-06, No Iterations 2
smoothSolver:  Solving for k, Initial residual = 0.000843126, Final residual = 6.7358e-05, No Iterations 2
ExecutionTime = 1239.58 s  ClockTime = 1240 s

forceCoeffs forceCoeffs1 write:
    Cm    = 0.157527
    Cd    = 0.411731
    Cl    = 0.0659619
    Cl(f) = 0.190508
    Cl(r) = -0.124546

Time = 78s

smoothSolver:  Solving for Ux, Initial residual = 0.000325065, Final residual = 2.73266e-05, No Iterations 7
smoothSolver:  Solving for Uy, Initial residual = 0.00728951, Final residual = 0.000642175, No Iterations 6
smoothSolver:  Solving for Uz, Initial residual = 0.00694994, Final residual = 0.000612894, No Iterations 6
nonePCG:  Solving for p, Initial residual = 0.00343642, Final residual = 3.41732e-05, No Iterations 2496
time step continuity errors : sum local = 6.50955e-05, global = -4.22244e-06, cumulative = -0.000566544
smoothSolver:  Solving for omega, Initial residual = 5.68861e-05, Final residual = 3.98676e-06, No Iterations 2
smoothSolver:  Solving for k, Initial residual = 0.000825837, Final residual = 6.61052e-05, No Iterations 2
ExecutionTime = 1252.87 s  ClockTime = 1253 s

forceCoeffs forceCoeffs1 write:
    Cm    = 0.15767
    Cd    = 0.412126
    Cl    = 0.0664724
    Cl(f) = 0.190906
    Cl(r) = -0.124434

Time = 79s

smoothSolver:  Solving for Ux, Initial residual = 0.000316488, Final residual = 2.64368e-05, No Iterations 7
smoothSolver:  Solving for Uy, Initial residual = 0.00714979, Final residual = 0.000631649, No Iterations 6
smoothSolver:  Solving for Uz, Initial residual = 0.0068043, Final residual = 0.00060135, No Iterations 6
nonePCG:  Solving for p, Initial residual = 0.00337289, Final residual = 3.36631e-05, No Iterations 2381
time step continuity errors : sum local = 6.41047e-05, global = -3.69279e-06, cumulative = -0.000570237
smoothSolver:  Solving for omega, Initial residual = 5.57532e-05, Final residual = 3.89925e-06, No Iterations 2
smoothSolver:  Solving for k, Initial residual = 0.00080872, Final residual = 6.47751e-05, No Iterations 2
ExecutionTime = 1265.57 s  ClockTime = 1266 s

forceCoeffs forceCoeffs1 write:
    Cm    = 0.15778
    Cd    = 0.41246
    Cl    = 0.0669403
    Cl(f) = 0.19125
    Cl(r) = -0.12431

Time = 80s

smoothSolver:  Solving for Ux, Initial residual = 0.000308176, Final residual = 2.56834e-05, No Iterations 7
smoothSolver:  Solving for Uy, Initial residual = 0.00701739, Final residual = 0.000623332, No Iterations 6
smoothSolver:  Solving for Uz, Initial residual = 0.0066456, Final residual = 0.000590719, No Iterations 6
nonePCG:  Solving for p, Initial residual = 0.00330873, Final residual = 3.28597e-05, No Iterations 2547
time step continuity errors : sum local = 6.25601e-05, global = -2.93935e-06, cumulative = -0.000573176
smoothSolver:  Solving for omega, Initial residual = 5.46056e-05, Final residual = 3.81199e-06, No Iterations 2
smoothSolver:  Solving for k, Initial residual = 0.000792318, Final residual = 6.34435e-05, No Iterations 2
ExecutionTime = 1279.19 s  ClockTime = 1280 s

forceCoeffs forceCoeffs1 write:
    Cm    = 0.157872
    Cd    = 0.412762
    Cl    = 0.0674477
    Cl(f) = 0.191596
    Cl(r) = -0.124148

Time = 81s

smoothSolver:  Solving for Ux, Initial residual = 0.000299655, Final residual = 2.49615e-05, No Iterations 7
smoothSolver:  Solving for Uy, Initial residual = 0.00690807, Final residual = 0.000620918, No Iterations 6
smoothSolver:  Solving for Uz, Initial residual = 0.00648499, Final residual = 0.000579905, No Iterations 6
nonePCG:  Solving for p, Initial residual = 0.00325312, Final residual = 3.22639e-05, No Iterations 2235
time step continuity errors : sum local = 6.14126e-05, global = -1.82092e-06, cumulative = -0.000574997
smoothSolver:  Solving for omega, Initial residual = 5.35913e-05, Final residual = 3.74331e-06, No Iterations 2
smoothSolver:  Solving for k, Initial residual = 0.000775611, Final residual = 6.21753e-05, No Iterations 2
ExecutionTime = 1291.13 s  ClockTime = 1292 s

forceCoeffs forceCoeffs1 write:
    Cm    = 0.157959
    Cd    = 0.413023
    Cl    = 0.067814
    Cl(f) = 0.191866
    Cl(r) = -0.124052

Time = 82s

smoothSolver:  Solving for Ux, Initial residual = 0.000292617, Final residual = 2.42861e-05, No Iterations 7
smoothSolver:  Solving for Uy, Initial residual = 0.00678444, Final residual = 0.000615421, No Iterations 6
smoothSolver:  Solving for Uz, Initial residual = 0.00634047, Final residual = 0.000569508, No Iterations 6
nonePCG:  Solving for p, Initial residual = 0.00320008, Final residual = 3.18863e-05, No Iterations 2658
time step continuity errors : sum local = 6.06869e-05, global = -1.17865e-06, cumulative = -0.000576176
smoothSolver:  Solving for omega, Initial residual = 5.25629e-05, Final residual = 3.67115e-06, No Iterations 2
smoothSolver:  Solving for k, Initial residual = 0.000759545, Final residual = 6.08715e-05, No Iterations 2
ExecutionTime = 1305.25 s  ClockTime = 1306 s

forceCoeffs forceCoeffs1 write:
    Cm    = 0.158101
    Cd    = 0.413342
    Cl    = 0.0681657
    Cl(f) = 0.192184
    Cl(r) = -0.124018

Time = 83s

[...]
smoothSolver:  Solving for Uy, Initial residual = 0.00451173, Final residual = 0.00036395, No Iterations 7
smoothSolver:  Solving for Uz, Initial residual = 0.00391889, Final residual = 0.000312522, No Iterations 7
nonePCG:  Solving for p, Initial residual = 0.00178204, Final residual = 1.78029e-05, No Iterations 3159
time step continuity errors : sum local = 3.36476e-05, global = -2.12359e-06, cumulative = -0.000570569
smoothSolver:  Solving for omega, Initial residual = 1.9588e-05, Final residual = 1.06721e-06, No Iterations 2
smoothSolver:  Solving for k, Initial residual = 0.000167899, Final residual = 1.01772e-05, No Iterations 2
ExecutionTime = 7782.65 s  ClockTime = 7784 s

forceCoeffs forceCoeffs1 write:
    Cm    = 0.156496
    Cd    = 0.411768
    Cl    = 0.0693931
    Cl(f) = 0.191193
    Cl(r) = -0.1218

Time = 481s

smoothSolver:  Solving for Ux, Initial residual = 0.000198504, Final residual = 1.92277e-05, No Iterations 7
smoothSolver:  Solving for Uy, Initial residual = 0.00452887, Final residual = 0.000366921, No Iterations 7
smoothSolver:  Solving for Uz, Initial residual = 0.00393268, Final residual = 0.000310401, No Iterations 7
nonePCG:  Solving for p, Initial residual = 0.00180375, Final residual = 1.80336e-05, No Iterations 3125
time step continuity errors : sum local = 3.40656e-05, global = -2.52481e-06, cumulative = -0.000573094
smoothSolver:  Solving for omega, Initial residual = 1.96342e-05, Final residual = 1.07238e-06, No Iterations 2
smoothSolver:  Solving for k, Initial residual = 0.000169647, Final residual = 1.02743e-05, No Iterations 2
ExecutionTime = 7799.05 s  ClockTime = 7800 s

forceCoeffs forceCoeffs1 write:
    Cm    = 0.156439
    Cd    = 0.411776
    Cl    = 0.069653
    Cl(f) = 0.191266
    Cl(r) = -0.121613

Time = 482s

smoothSolver:  Solving for Ux, Initial residual = 0.000199031, Final residual = 1.92008e-05, No Iterations 7
smoothSolver:  Solving for Uy, Initial residual = 0.00453706, Final residual = 0.000366707, No Iterations 7
smoothSolver:  Solving for Uz, Initial residual = 0.00392757, Final residual = 0.00030754, No Iterations 7
nonePCG:  Solving for p, Initial residual = 0.0018143, Final residual = 1.81335e-05, No Iterations 3287
time step continuity errors : sum local = 3.42331e-05, global = -2.35976e-06, cumulative = -0.000575453
smoothSolver:  Solving for omega, Initial residual = 1.96927e-05, Final residual = 1.07245e-06, No Iterations 2
smoothSolver:  Solving for k, Initial residual = 0.000170471, Final residual = 1.03216e-05, No Iterations 2
ExecutionTime = 7816.12 s  ClockTime = 7817 s

forceCoeffs forceCoeffs1 write:
    Cm    = 0.156447
    Cd    = 0.41183
    Cl    = 0.0699242
    Cl(f) = 0.191409
    Cl(r) = -0.121485

Time = 483s

smoothSolver:  Solving for Ux, Initial residual = 0.000198337, Final residual = 1.91269e-05, No Iterations 7
smoothSolver:  Solving for Uy, Initial residual = 0.00452492, Final residual = 0.000365394, No Iterations 7
smoothSolver:  Solving for Uz, Initial residual = 0.0039138, Final residual = 0.000305737, No Iterations 7
nonePCG:  Solving for p, Initial residual = 0.0018192, Final residual = 1.80288e-05, No Iterations 2985
time step continuity errors : sum local = 3.40108e-05, global = -2.43719e-06, cumulative = -0.000577891
smoothSolver:  Solving for omega, Initial residual = 1.96662e-05, Final residual = 1.0749e-06, No Iterations 2
smoothSolver:  Solving for k, Initial residual = 0.00017007, Final residual = 1.03396e-05, No Iterations 2
ExecutionTime = 7831.79 s  ClockTime = 7833 s

forceCoeffs forceCoeffs1 write:
    Cm    = 0.156548
    Cd    = 0.411942
    Cl    = 0.0701654
    Cl(f) = 0.191631
    Cl(r) = -0.121466

Time = 484s

smoothSolver:  Solving for Ux, Initial residual = 0.000197718, Final residual = 1.91873e-05, No Iterations 7
smoothSolver:  Solving for Uy, Initial residual = 0.00451583, Final residual = 0.000365471, No Iterations 7
smoothSolver:  Solving for Uz, Initial residual = 0.00391075, Final residual = 0.000309588, No Iterations 7
nonePCG:  Solving for p, Initial residual = 0.00181011, Final residual = 1.80731e-05, No Iterations 2740
time step continuity errors : sum local = 3.40774e-05, global = -2.21221e-06, cumulative = -0.000580103
smoothSolver:  Solving for omega, Initial residual = 1.95966e-05, Final residual = 1.07308e-06, No Iterations 2
smoothSolver:  Solving for k, Initial residual = 0.000169462, Final residual = 1.0317e-05, No Iterations 2
ExecutionTime = 7846.29 s  ClockTime = 7848 s

forceCoeffs forceCoeffs1 write:
    Cm    = 0.156679
    Cd    = 0.412045
    Cl    = 0.0703063
    Cl(f) = 0.191832
    Cl(r) = -0.121526

Time = 485s

smoothSolver:  Solving for Ux, Initial residual = 0.0001974, Final residual = 1.93756e-05, No Iterations 7
smoothSolver:  Solving for Uy, Initial residual = 0.00449958, Final residual = 0.000365505, No Iterations 7
smoothSolver:  Solving for Uz, Initial residual = 0.00393346, Final residual = 0.000315627, No Iterations 7
nonePCG:  Solving for p, Initial residual = 0.00179953, Final residual = 1.78916e-05, No Iterations 3219
time step continuity errors : sum local = 3.37239e-05, global = -1.32358e-06, cumulative = -0.000581426
smoothSolver:  Solving for omega, Initial residual = 1.95482e-05, Final residual = 1.07068e-06, No Iterations 2
smoothSolver:  Solving for k, Initial residual = 0.000170265, Final residual = 1.03701e-05, No Iterations 2
ExecutionTime = 7863.14 s  ClockTime = 7864 s

forceCoeffs forceCoeffs1 write:
    Cm    = 0.156868
    Cd    = 0.4122
    Cl    = 0.070388
    Cl(f) = 0.192062
    Cl(r) = -0.121674

Time = 486s

smoothSolver:  Solving for Ux, Initial residual = 0.000198791, Final residual = 1.97618e-05, No Iterations 7
smoothSolver:  Solving for Uy, Initial residual = 0.00448712, Final residual = 0.000366673, No Iterations 7
smoothSolver:  Solving for Uz, Initial residual = 0.00398411, Final residual = 0.000323618, No Iterations 7
nonePCG:  Solving for p, Initial residual = 0.00177797, Final residual = 1.7778e-05, No Iterations 3158
time step continuity errors : sum local = 3.34966e-05, global = -5.36164e-07, cumulative = -0.000581963
smoothSolver:  Solving for omega, Initial residual = 1.95477e-05, Final residual = 1.06896e-06, No Iterations 2
smoothSolver:  Solving for k, Initial residual = 0.000172597, Final residual = 1.05323e-05, No Iterations 2
ExecutionTime = 7879.66 s  ClockTime = 7881 s

forceCoeffs forceCoeffs1 write:
    Cm    = 0.157023
    Cd    = 0.412271
    Cl    = 0.070433
    Cl(f) = 0.19224
    Cl(r) = -0.121807

Time = 487s

smoothSolver:  Solving for Ux, Initial residual = 0.000200355, Final residual = 1.51437e-05, No Iterations 8
smoothSolver:  Solving for Uy, Initial residual = 0.00447482, Final residual = 0.000366171, No Iterations 7
smoothSolver:  Solving for Uz, Initial residual = 0.00400443, Final residual = 0.000330804, No Iterations 7
nonePCG:  Solving for p, Initial residual = 0.00176193, Final residual = 1.75789e-05, No Iterations 3362
time step continuity errors : sum local = 3.3121e-05, global = -1.37635e-07, cumulative = -0.0005821
smoothSolver:  Solving for omega, Initial residual = 1.95496e-05, Final residual = 1.07138e-06, No Iterations 2
smoothSolver:  Solving for k, Initial residual = 0.000175125, Final residual = 1.07292e-05, No Iterations 2
ExecutionTime = 7897.07 s  ClockTime = 7898 s

forceCoeffs forceCoeffs1 write:
    Cm    = 0.157182
    Cd    = 0.412365
    Cl    = 0.0704256
    Cl(f) = 0.192394
    Cl(r) = -0.121969

Time = 488s

smoothSolver:  Solving for Ux, Initial residual = 0.000201745, Final residual = 1.52336e-05, No Iterations 8
smoothSolver:  Solving for Uy, Initial residual = 0.00447977, Final residual = 0.000368586, No Iterations 7
smoothSolver:  Solving for Uz, Initial residual = 0.00400905, Final residual = 0.000335009, No Iterations 7
nonePCG:  Solving for p, Initial residual = 0.00174585, Final residual = 1.72679e-05, No Iterations 3363
time step continuity errors : sum local = 3.25439e-05, global = -1.12363e-07, cumulative = -0.000582213
smoothSolver:  Solving for omega, Initial residual = 1.96124e-05, Final residual = 1.06858e-06, No Iterations 2
smoothSolver:  Solving for k, Initial residual = 0.000177404, Final residual = 1.08711e-05, No Iterations 2
ExecutionTime = 7914.48 s  ClockTime = 7916 s

forceCoeffs forceCoeffs1 write:
    Cm    = 0.157276
    Cd    = 0.412415
    Cl    = 0.0703436
    Cl(f) = 0.192448
    Cl(r) = -0.122104

Time = 489s

smoothSolver:  Solving for Ux, Initial residual = 0.000203351, Final residual = 2.02792e-05, No Iterations 7
smoothSolver:  Solving for Uy, Initial residual = 0.0044621, Final residual = 0.00036726, No Iterations 7
smoothSolver:  Solving for Uz, Initial residual = 0.00400482, Final residual = 0.000335233, No Iterations 7
nonePCG:  Solving for p, Initial residual = 0.00173105, Final residual = 1.71495e-05, No Iterations 3137
time step continuity errors : sum local = 3.23316e-05, global = 3.44284e-08, cumulative = -0.000582178
smoothSolver:  Solving for omega, Initial residual = 1.96105e-05, Final residual = 1.06215e-06, No Iterations 2
smoothSolver:  Solving for k, Initial residual = 0.000178362, Final residual = 1.085e-05, No Iterations 2
ExecutionTime = 7930.81 s  ClockTime = 7932 s

forceCoeffs forceCoeffs1 write:
    Cm    = 0.157309
    Cd    = 0.412401
    Cl    = 0.0702629
    Cl(f) = 0.19244
    Cl(r) = -0.122177

Time = 490s

smoothSolver:  Solving for Ux, Initial residual = 0.000204476, Final residual = 2.03553e-05, No Iterations 7
smoothSolver:  Solving for Uy, Initial residual = 0.00444256, Final residual = 0.000365483, No Iterations 7
smoothSolver:  Solving for Uz, Initial residual = 0.00399251, Final residual = 0.000335809, No Iterations 7
nonePCG:  Solving for p, Initial residual = 0.00172492, Final residual = 1.7232e-05, No Iterations 3507
time step continuity errors : sum local = 3.24962e-05, global = -1.02296e-06, cumulative = -0.000583201
smoothSolver:  Solving for omega, Initial residual = 1.97255e-05, Final residual = 1.0607e-06, No Iterations 2
smoothSolver:  Solving for k, Initial residual = 0.000178617, Final residual = 1.07503e-05, No Iterations 2
ExecutionTime = 7949.04 s  ClockTime = 7950 s

forceCoeffs forceCoeffs1 write:
    Cm    = 0.157331
    Cd    = 0.41238
    Cl    = 0.0701946
    Cl(f) = 0.192428
    Cl(r) = -0.122233

Time = 491s

smoothSolver:  Solving for Ux, Initial residual = 0.000205264, Final residual = 2.05001e-05, No Iterations 7
smoothSolver:  Solving for Uy, Initial residual = 0.00444989, Final residual = 0.000367199, No Iterations 7
smoothSolver:  Solving for Uz, Initial residual = 0.00400585, Final residual = 0.000342435, No Iterations 7
nonePCG:  Solving for p, Initial residual = 0.00172563, Final residual = 1.71726e-05, No Iterations 3554
time step continuity errors : sum local = 3.23903e-05, global = -1.25294e-06, cumulative = -0.000584454
smoothSolver:  Solving for omega, Initial residual = 1.98883e-05, Final residual = 1.06657e-06, No Iterations 2
smoothSolver:  Solving for k, Initial residual = 0.000177236, Final residual = 1.06173e-05, No Iterations 2
ExecutionTime = 7967.54 s  ClockTime = 7969 s

forceCoeffs forceCoeffs1 write:
    Cm    = 0.157303
    Cd    = 0.412299
    Cl    = 0.0700346
    Cl(f) = 0.19232
    Cl(r) = -0.122285

Time = 492s

smoothSolver:  Solving for Ux, Initial residual = 0.00020541, Final residual = 1.55676e-05, No Iterations 8
smoothSolver:  Solving for Uy, Initial residual = 0.004466, Final residual = 0.000371614, No Iterations 7
smoothSolver:  Solving for Uz, Initial residual = 0.00406368, Final residual = 0.000351539, No Iterations 7
nonePCG:  Solving for p, Initial residual = 0.00173822, Final residual = 1.73294e-05, No Iterations 3789
time step continuity errors : sum local = 3.26865e-05, global = -1.62181e-06, cumulative = -0.000586076
smoothSolver:  Solving for omega, Initial residual = 2.01122e-05, Final residual = 1.07506e-06, No Iterations 2
smoothSolver:  Solving for k, Initial residual = 0.000174947, Final residual = 1.04879e-05, No Iterations 2
ExecutionTime = 7986.89 s  ClockTime = 7988 s

forceCoeffs forceCoeffs1 write:
    Cm    = 0.157238
    Cd    = 0.412172
    Cl    = 0.069891
    Cl(f) = 0.192184
    Cl(r) = -0.122293

Time = 493s

smoothSolver:  Solving for Ux, Initial residual = 0.000206188, Final residual = 1.56843e-05, No Iterations 8
smoothSolver:  Solving for Uy, Initial residual = 0.00453382, Final residual = 0.000381451, No Iterations 7
smoothSolver:  Solving for Uz, Initial residual = 0.00416298, Final residual = 0.000361518, No Iterations 7
nonePCG:  Solving for p, Initial residual = 0.00176049, Final residual = 1.75156e-05, No Iterations 3872
time step continuity errors : sum local = 3.30307e-05, global = -1.64925e-06, cumulative = -0.000587725
smoothSolver:  Solving for omega, Initial residual = 2.04106e-05, Final residual = 1.09295e-06, No Iterations 2
smoothSolver:  Solving for k, Initial residual = 0.000172278, Final residual = 1.04474e-05, No Iterations 2
ExecutionTime = 8006.89 s  ClockTime = 8008 s

forceCoeffs forceCoeffs1 write:
    Cm    = 0.157183
    Cd    = 0.412062
    Cl    = 0.0697873
    Cl(f) = 0.192076
    Cl(r) = -0.122289

Time = 494s

smoothSolver:  Solving for Ux, Initial residual = 0.000206842, Final residual = 1.56712e-05, No Iterations 8
smoothSolver:  Solving for Uy, Initial residual = 0.00464132, Final residual = 0.00039023, No Iterations 7
smoothSolver:  Solving for Uz, Initial residual = 0.00425393, Final residual = 0.000367446, No Iterations 7
nonePCG:  Solving for p, Initial residual = 0.00177984, Final residual = 1.77727e-05, No Iterations 3832
time step continuity errors : sum local = 3.35065e-05, global = -1.52731e-06, cumulative = -0.000589252
smoothSolver:  Solving for omega, Initial residual = 2.07393e-05, Final residual = 1.12822e-06, No Iterations 2
smoothSolver:  Solving for k, Initial residual = 0.000170379, Final residual = 1.05004e-05, No Iterations 2
ExecutionTime = 8026.46 s  ClockTime = 8028 s

forceCoeffs forceCoeffs1 write:
    Cm    = 0.157143
    Cd    = 0.411983
    Cl    = 0.0696852
    Cl(f) = 0.191986
    Cl(r) = -0.122301

Time = 495s

smoothSolver:  Solving for Ux, Initial residual = 0.000208307, Final residual = 2.0789e-05, No Iterations 7
smoothSolver:  Solving for Uy, Initial residual = 0.00475697, Final residual = 0.000397031, No Iterations 7
smoothSolver:  Solving for Uz, Initial residual = 0.00431339, Final residual = 0.00036736, No Iterations 7
nonePCG:  Solving for p, Initial residual = 0.00179376, Final residual = 1.7868e-05, No Iterations 3353
time step continuity errors : sum local = 3.36713e-05, global = -1.01186e-06, cumulative = -0.000590264
smoothSolver:  Solving for omega, Initial residual = 2.10161e-05, Final residual = 1.16877e-06, No Iterations 2
smoothSolver:  Solving for k, Initial residual = 0.000168736, Final residual = 1.0584e-05, No Iterations 2
ExecutionTime = 8043.86 s  ClockTime = 8045 s

forceCoeffs forceCoeffs1 write:
    Cm    = 0.157134
    Cd    = 0.411904
    Cl    = 0.0696835
    Cl(f) = 0.191975
    Cl(r) = -0.122292

Time = 496s

smoothSolver:  Solving for Ux, Initial residual = 0.000209572, Final residual = 2.05797e-05, No Iterations 7
smoothSolver:  Solving for Uy, Initial residual = 0.00482391, Final residual = 0.000394579, No Iterations 7
smoothSolver:  Solving for Uz, Initial residual = 0.00432472, Final residual = 0.000358446, No Iterations 7
nonePCG:  Solving for p, Initial residual = 0.00181192, Final residual = 1.80921e-05, No Iterations 3159
time step continuity errors : sum local = 3.40856e-05, global = -3.30927e-07, cumulative = -0.000590595
smoothSolver:  Solving for omega, Initial residual = 2.11406e-05, Final residual = 1.19106e-06, No Iterations 2
smoothSolver:  Solving for k, Initial residual = 0.000166937, Final residual = 1.05578e-05, No Iterations 2
ExecutionTime = 8060.37 s  ClockTime = 8062 s

forceCoeffs forceCoeffs1 write:
    Cm    = 0.157069
    Cd    = 0.411756
    Cl    = 0.0696716
    Cl(f) = 0.191904
    Cl(r) = -0.122233

Time = 497s

smoothSolver:  Solving for Ux, Initial residual = 0.00021002, Final residual = 2.03222e-05, No Iterations 7
smoothSolver:  Solving for Uy, Initial residual = 0.00481617, Final residual = 0.000387965, No Iterations 7
smoothSolver:  Solving for Uz, Initial residual = 0.00431983, Final residual = 0.000348786, No Iterations 7
nonePCG:  Solving for p, Initial residual = 0.00183447, Final residual = 1.82997e-05, No Iterations 3097
time step continuity errors : sum local = 3.44704e-05, global = 5.88488e-07, cumulative = -0.000590007
smoothSolver:  Solving for omega, Initial residual = 2.12342e-05, Final residual = 1.19419e-06, No Iterations 2
smoothSolver:  Solving for k, Initial residual = 0.000165583, Final residual = 1.0397e-05, No Iterations 2
ExecutionTime = 8076.57 s  ClockTime = 8078 s

forceCoeffs forceCoeffs1 write:
    Cm    = 0.157053
    Cd    = 0.411635
    Cl    = 0.0697732
    Cl(f) = 0.19194
    Cl(r) = -0.122167

Time = 498s

smoothSolver:  Solving for Ux, Initial residual = 0.000211161, Final residual = 2.02302e-05, No Iterations 7
smoothSolver:  Solving for Uy, Initial residual = 0.00481647, Final residual = 0.000381634, No Iterations 7
smoothSolver:  Solving for Uz, Initial residual = 0.00432899, Final residual = 0.000343294, No Iterations 7
nonePCG:  Solving for p, Initial residual = 0.00185338, Final residual = 1.83363e-05, No Iterations 3042
time step continuity errors : sum local = 3.45395e-05, global = 1.31431e-06, cumulative = -0.000588692
smoothSolver:  Solving for omega, Initial residual = 2.12529e-05, Final residual = 1.18672e-06, No Iterations 2
smoothSolver:  Solving for k, Initial residual = 0.000164362, Final residual = 1.01454e-05, No Iterations 2
ExecutionTime = 8092.52 s  ClockTime = 8094 s

forceCoeffs forceCoeffs1 write:
    Cm    = 0.157062
    Cd    = 0.411595
    Cl    = 0.0697832
    Cl(f) = 0.191954
    Cl(r) = -0.12217

Time = 499s

smoothSolver:  Solving for Ux, Initial residual = 0.000211926, Final residual = 2.01279e-05, No Iterations 7
smoothSolver:  Solving for Uy, Initial residual = 0.00481465, Final residual = 0.000378423, No Iterations 7
smoothSolver:  Solving for Uz, Initial residual = 0.00433227, Final residual = 0.000342393, No Iterations 7
nonePCG:  Solving for p, Initial residual = 0.00187264, Final residual = 1.86582e-05, No Iterations 2884
time step continuity errors : sum local = 3.5151e-05, global = 1.93559e-06, cumulative = -0.000586757
smoothSolver:  Solving for omega, Initial residual = 2.13446e-05, Final residual = 1.17972e-06, No Iterations 2
smoothSolver:  Solving for k, Initial residual = 0.000164146, Final residual = 9.95301e-06, No Iterations 2
ExecutionTime = 8107.66 s  ClockTime = 8109 s

forceCoeffs forceCoeffs1 write:
    Cm    = 0.157146
    Cd    = 0.411697
    Cl    = 0.0698296
    Cl(f) = 0.192061
    Cl(r) = -0.122231

Time = 500s

smoothSolver:  Solving for Ux, Initial residual = 0.000212519, Final residual = 2.00258e-05, No Iterations 7
smoothSolver:  Solving for Uy, Initial residual = 0.00482422, Final residual = 0.000378993, No Iterations 7
smoothSolver:  Solving for Uz, Initial residual = 0.00432784, Final residual = 0.000342871, No Iterations 7
nonePCG:  Solving for p, Initial residual = 0.00188318, Final residual = 1.88198e-05, No Iterations 3062
time step continuity errors : sum local = 3.54664e-05, global = 1.59358e-06, cumulative = -0.000585163
smoothSolver:  Solving for omega, Initial residual = 2.14333e-05, Final residual = 1.17139e-06, No Iterations 2
smoothSolver:  Solving for k, Initial residual = 0.000165317, Final residual = 9.88276e-06, No Iterations 2
ExecutionTime = 8123.64 s  ClockTime = 8125 s

streamlines streamlines write:
    Seeded 20 particles
    Sampled 16380 locations
forceCoeffs forceCoeffs1 write:
    Cm    = 0.157236
    Cd    = 0.411843
    Cl    = 0.0697117
    Cl(f) = 0.192092
    Cl(r) = -0.12238

End

