
simpleFoam has been superseded and replaced by the more general
incompressibleFluid solver module executed by the foamRun application:

    foamRun -solver incompressibleFluid

/*---------------------------------------------------------------------------*\
  =========                 |
  \\      /  F ield         | OpenFOAM: The Open Source CFD Toolbox
   \\    /   O peration     | Website:  https://openfoam.org
    \\  /    A nd           | Version:  dev
     \\/     M anipulation  |
\*---------------------------------------------------------------------------*/
Build  : dev-c8cf725d25ac
Exec   : foamRun -solver incompressibleFluid
Date   : Dec 01 2023
Time   : 13:52:28
Host   : "cfdphoto4.escet.urjc.es"
PID    : 235405
I/O    : uncollated
Case   : /home/carlos/Desktop/tutorials/incompressible/simpleFoam/motorBike
nProcs : 1
sigFpe : Enabling floating point exception trapping (FOAM_SIGFPE).
fileModificationChecking : Monitoring run-time modified files using timeStampMaster (fileModificationSkew 10)
allowSystemOperations : Allowing user-supplied system call operations

// * * * * * * * * * * * * * * * * * * * * * * * * * * * * * * * * * * * * * //
Create time

Create mesh for time = 0

Selecting solver incompressibleFluid
Selecting viscosity model constant
Selecting turbulence model type RAS
Selecting RAS turbulence model kOmegaSST
Selecting patchDistMethod meshWave
RAS
{
    model           kOmegaSST;
    turbulence      on;
    printCoeffs     on;
    alphaK1         0.85;
    alphaK2         1;
    alphaOmega1     0.5;
    alphaOmega2     0.856;
    gamma1          0.555556;
    gamma2          0.44;
    beta1           0.075;
    beta2           0.0828;
    betaStar        0.09;
    a1              0.31;
    b1              1;
    c1              10;
    F3              false;
}

No MRF models present


SIMPLE: No convergence criteria found


SIMPLE: Operating solver in steady-state mode with 1 outer corrector
SIMPLE: Operating solver in SIMPLE mode



Starting time loop

streamlines streamlines:
    automatic track length specified through number of sub cycles : 5

Reading surface description:
    yNormal

forces forceCoeffs1:
    Not including porosity effects
forceCoeffs forceCoeffs1:
    Not including porosity effects
streamlines streamlines write:
    Seeded 20 particles
    Sampled 18935 locations
forceCoeffs forceCoeffs1 write:
    Cm    = 0.00903091
    Cd    = 0.0223823
    Cl    = 0.000742516
    Cl(f) = 0.00940217
    Cl(r) = -0.00865965

Time = 1s

smoothSolver:  Solving for Ux, Initial residual = 0.0880483, Final residual = 0.00771216, No Iterations 7
smoothSolver:  Solving for Uy, Initial residual = 0.58757, Final residual = 0.0542929, No Iterations 6
smoothSolver:  Solving for Uz, Initial residual = 0.407231, Final residual = 0.0330169, No Iterations 5
diagonalPCG:  Solving for p, Initial residual = 1, Final residual = 0.00971269, No Iterations 142
time step continuity errors : sum local = 0.000976153, global = 0.000141752, cumulative = 0.000141752
smoothSolver:  Solving for omega, Initial residual = 0.00136969, Final residual = 7.83822e-05, No Iterations 2
bounding omega, min: -13.5333 max: 20456.2 average: 188.733
smoothSolver:  Solving for k, Initial residual = 1, Final residual = 0.0306835, No Iterations 2
ExecutionTime = 7.10673 s  ClockTime = 7 s

forceCoeffs forceCoeffs1 write:
    Cm    = 0.564106
    Cd    = 1.3334
    Cl    = -0.039711
    Cl(f) = 0.54425
    Cl(r) = -0.583961

Time = 2s

smoothSolver:  Solving for Ux, Initial residual = 0.0388129, Final residual = 0.00346364, No Iterations 7
smoothSolver:  Solving for Uy, Initial residual = 0.378178, Final residual = 0.0314112, No Iterations 7
smoothSolver:  Solving for Uz, Initial residual = 0.164255, Final residual = 0.0124552, No Iterations 7
diagonalPCG:  Solving for p, Initial residual = 0.0731835, Final residual = 0.000730308, No Iterations 108
time step continuity errors : sum local = 0.000776625, global = 0.000204043, cumulative = 0.000345796
smoothSolver:  Solving for omega, Initial residual = 0.00149836, Final residual = 0.000105135, No Iterations 2
bounding omega, min: -6.24466 max: 20456.2 average: 239.042
smoothSolver:  Solving for k, Initial residual = 0.051622, Final residual = 0.00177457, No Iterations 2
ExecutionTime = 8.60611 s  ClockTime = 8 s

forceCoeffs forceCoeffs1 write:
    Cm    = 0.650886
    Cd    = 1.52816
    Cl    = -0.0530195
    Cl(f) = 0.624377
    Cl(r) = -0.677396

Time = 3s

smoothSolver:  Solving for Ux, Initial residual = 0.0202487, Final residual = 0.00199271, No Iterations 7
smoothSolver:  Solving for Uy, Initial residual = 0.2925, Final residual = 0.0249262, No Iterations 7
smoothSolver:  Solving for Uz, Initial residual = 0.110324, Final residual = 0.00885406, No Iterations 7
diagonalPCG:  Solving for p, Initial residual = 0.0525693, Final residual = 0.000510588, No Iterations 132
time step continuity errors : sum local = 0.000725767, global = 6.17483e-05, cumulative = 0.000407544
smoothSolver:  Solving for omega, Initial residual = 0.0011297, Final residual = 7.54717e-05, No Iterations 2
smoothSolver:  Solving for k, Initial residual = 0.0223497, Final residual = 0.000868391, No Iterations 2
ExecutionTime = 10.209 s  ClockTime = 10 s

forceCoeffs forceCoeffs1 write:
    Cm    = 0.570883
    Cd    = 1.33763
    Cl    = -0.0377025
    Cl(f) = 0.552032
    Cl(r) = -0.589734

Time = 4s

smoothSolver:  Solving for Ux, Initial residual = 0.0137568, Final residual = 0.00105632, No Iterations 8
smoothSolver:  Solving for Uy, Initial residual = 0.236256, Final residual = 0.0193423, No Iterations 7
smoothSolver:  Solving for Uz, Initial residual = 0.10024, Final residual = 0.00805301, No Iterations 7
diagonalPCG:  Solving for p, Initial residual = 0.0454076, Final residual = 0.000449001, No Iterations 126
time step continuity errors : sum local = 0.000745918, global = 0.000129622, cumulative = 0.000537166
smoothSolver:  Solving for omega, Initial residual = 0.00102268, Final residual = 7.37696e-05, No Iterations 2
smoothSolver:  Solving for k, Initial residual = 0.0130525, Final residual = 0.000545267, No Iterations 2
ExecutionTime = 11.7897 s  ClockTime = 11 s

forceCoeffs forceCoeffs1 write:
    Cm    = 0.464822
    Cd    = 1.09043
    Cl    = -0.0293716
    Cl(f) = 0.450136
    Cl(r) = -0.479507

Time = 5s

smoothSolver:  Solving for Ux, Initial residual = 0.0106228, Final residual = 0.00104374, No Iterations 7
smoothSolver:  Solving for Uy, Initial residual = 0.202687, Final residual = 0.0162394, No Iterations 7
smoothSolver:  Solving for Uz, Initial residual = 0.102737, Final residual = 0.00834592, No Iterations 7
diagonalPCG:  Solving for p, Initial residual = 0.0409251, Final residual = 0.000405685, No Iterations 128
time step continuity errors : sum local = 0.000744029, global = 0.000175259, cumulative = 0.000712425
smoothSolver:  Solving for omega, Initial residual = 0.000932858, Final residual = 6.92826e-05, No Iterations 2
smoothSolver:  Solving for k, Initial residual = 0.00904158, Final residual = 0.000394476, No Iterations 2
ExecutionTime = 13.3551 s  ClockTime = 13 s

forceCoeffs forceCoeffs1 write:
    Cm    = 0.37813
    Cd    = 0.892679
    Cl    = -0.0212214
    Cl(f) = 0.36752
    Cl(r) = -0.388741

Time = 6s

smoothSolver:  Solving for Ux, Initial residual = 0.00852252, Final residual = 0.00081749, No Iterations 7
smoothSolver:  Solving for Uy, Initial residual = 0.180961, Final residual = 0.0143322, No Iterations 7
smoothSolver:  Solving for Uz, Initial residual = 0.107594, Final residual = 0.0088726, No Iterations 7
diagonalPCG:  Solving for p, Initial residual = 0.0366108, Final residual = 0.000361449, No Iterations 127
time step continuity errors : sum local = 0.000717454, global = 0.000183122, cumulative = 0.000895546
smoothSolver:  Solving for omega, Initial residual = 0.000850399, Final residual = 6.45983e-05, No Iterations 2
smoothSolver:  Solving for k, Initial residual = 0.0070391, Final residual = 0.000319294, No Iterations 2
ExecutionTime = 14.9494 s  ClockTime = 15 s

forceCoeffs forceCoeffs1 write:
    Cm    = 0.313375
    Cd    = 0.745277
    Cl    = -0.00838385
    Cl(f) = 0.309183
    Cl(r) = -0.317567

Time = 7s

smoothSolver:  Solving for Ux, Initial residual = 0.00714435, Final residual = 0.000667395, No Iterations 7
smoothSolver:  Solving for Uy, Initial residual = 0.164514, Final residual = 0.0130191, No Iterations 7
smoothSolver:  Solving for Uz, Initial residual = 0.117875, Final residual = 0.00970595, No Iterations 7
diagonalPCG:  Solving for p, Initial residual = 0.0326832, Final residual = 0.000323453, No Iterations 123
time step continuity errors : sum local = 0.000683496, global = 0.000162296, cumulative = 0.00105784
smoothSolver:  Solving for omega, Initial residual = 0.000773003, Final residual = 5.93382e-05, No Iterations 2
smoothSolver:  Solving for k, Initial residual = 0.00587717, Final residual = 0.000276728, No Iterations 2
ExecutionTime = 16.5196 s  ClockTime = 16 s

forceCoeffs forceCoeffs1 write:
    Cm    = 0.267722
    Cd    = 0.641128
    Cl    = 0.00228819
    Cl(f) = 0.268867
    Cl(r) = -0.266578

Time = 8s

smoothSolver:  Solving for Ux, Initial residual = 0.00614513, Final residual = 0.000573174, No Iterations 7
smoothSolver:  Solving for Uy, Initial residual = 0.14718, Final residual = 0.0115672, No Iterations 7
smoothSolver:  Solving for Uz, Initial residual = 0.128424, Final residual = 0.0105175, No Iterations 7
diagonalPCG:  Solving for p, Initial residual = 0.0299553, Final residual = 0.000294148, No Iterations 83
time step continuity errors : sum local = 0.000648486, global = 0.000142825, cumulative = 0.00120067
smoothSolver:  Solving for omega, Initial residual = 0.000708322, Final residual = 5.44142e-05, No Iterations 2
smoothSolver:  Solving for k, Initial residual = 0.00514363, Final residual = 0.00025232, No Iterations 2
ExecutionTime = 17.8695 s  ClockTime = 18 s

forceCoeffs forceCoeffs1 write:
    Cm    = 0.236265
    Cd    = 0.569686
    Cl    = 0.0089352
    Cl(f) = 0.240732
    Cl(r) = -0.231797

Time = 9s

smoothSolver:  Solving for Ux, Initial residual = 0.00539021, Final residual = 0.000515684, No Iterations 7
smoothSolver:  Solving for Uy, Initial residual = 0.132344, Final residual = 0.0103409, No Iterations 7
smoothSolver:  Solving for Uz, Initial residual = 0.136052, Final residual = 0.0111426, No Iterations 7
diagonalPCG:  Solving for p, Initial residual = 0.0283038, Final residual = 0.000279035, No Iterations 96
time step continuity errors : sum local = 0.000623278, global = 0.000174858, cumulative = 0.00137553
smoothSolver:  Solving for omega, Initial residual = 0.000653082, Final residual = 5.00401e-05, No Iterations 2
smoothSolver:  Solving for k, Initial residual = 0.0046511, Final residual = 0.000237636, No Iterations 2
ExecutionTime = 19.2946 s  ClockTime = 19 s

forceCoeffs forceCoeffs1 write:
    Cm    = 0.214958
    Cd    = 0.522276
    Cl    = 0.0129894
    Cl(f) = 0.221453
    Cl(r) = -0.208464

Time = 10s

smoothSolver:  Solving for Ux, Initial residual = 0.00482995, Final residual = 0.000470394, No Iterations 7
smoothSolver:  Solving for Uy, Initial residual = 0.119441, Final residual = 0.00920058, No Iterations 7
smoothSolver:  Solving for Uz, Initial residual = 0.124812, Final residual = 0.0102708, No Iterations 7
diagonalPCG:  Solving for p, Initial residual = 0.0265204, Final residual = 0.000262716, No Iterations 89
time step continuity errors : sum local = 0.000598038, global = 0.000132558, cumulative = 0.00150808
smoothSolver:  Solving for omega, Initial residual = 0.000604807, Final residual = 4.64688e-05, No Iterations 2
smoothSolver:  Solving for k, Initial residual = 0.0042896, Final residual = 0.000228387, No Iterations 2
ExecutionTime = 20.6947 s  ClockTime = 20 s

forceCoeffs forceCoeffs1 write:
    Cm    = 0.200532
    Cd    = 0.490328
    Cl    = 0.01472
    Cl(f) = 0.207892
    Cl(r) = -0.193172

Time = 11s

smoothSolver:  Solving for Ux, Initial residual = 0.004428, Final residual = 0.000434566, No Iterations 7
smoothSolver:  Solving for Uy, Initial residual = 0.107334, Final residual = 0.00827257, No Iterations 7
smoothSolver:  Solving for Uz, Initial residual = 0.113095, Final residual = 0.00931942, No Iterations 7
diagonalPCG:  Solving for p, Initial residual = 0.0251995, Final residual = 0.000249286, No Iterations 87
time step continuity errors : sum local = 0.000569976, global = 8.17181e-05, cumulative = 0.0015898
smoothSolver:  Solving for omega, Initial residual = 0.000567645, Final residual = 4.35349e-05, No Iterations 2
smoothSolver:  Solving for k, Initial residual = 0.00400937, Final residual = 0.000221476, No Iterations 2
ExecutionTime = 22.0707 s  ClockTime = 22 s

forceCoeffs forceCoeffs1 write:
    Cm    = 0.190763
    Cd    = 0.468944
    Cl    = 0.0173257
    Cl(f) = 0.199425
    Cl(r) = -0.1821

Time = 12s

smoothSolver:  Solving for Ux, Initial residual = 0.0041254, Final residual = 0.00040745, No Iterations 7
smoothSolver:  Solving for Uy, Initial residual = 0.0970281, Final residual = 0.00757156, No Iterations 7
smoothSolver:  Solving for Uz, Initial residual = 0.106356, Final residual = 0.00890159, No Iterations 7
diagonalPCG:  Solving for p, Initial residual = 0.0241973, Final residual = 0.000240097, No Iterations 85
time step continuity errors : sum local = 0.000546433, global = 3.25416e-05, cumulative = 0.00162234
smoothSolver:  Solving for omega, Initial residual = 0.000536266, Final residual = 4.08427e-05, No Iterations 2
smoothSolver:  Solving for k, Initial residual = 0.00377796, Final residual = 0.000216023, No Iterations 2
ExecutionTime = 23.4475 s  ClockTime = 23 s

forceCoeffs forceCoeffs1 write:
    Cm    = 0.184492
    Cd    = 0.454434
    Cl    = 0.0213483
    Cl(f) = 0.195166
    Cl(r) = -0.173817

Time = 13s

smoothSolver:  Solving for Ux, Initial residual = 0.00391347, Final residual = 0.000385846, No Iterations 7
smoothSolver:  Solving for Uy, Initial residual = 0.0882746, Final residual = 0.00698531, No Iterations 7
smoothSolver:  Solving for Uz, Initial residual = 0.102702, Final residual = 0.00866703, No Iterations 7
diagonalPCG:  Solving for p, Initial residual = 0.0235115, Final residual = 0.000232736, No Iterations 83
time step continuity errors : sum local = 0.000524164, global = -6.15723e-06, cumulative = 0.00161619
smoothSolver:  Solving for omega, Initial residual = 0.000507782, Final residual = 3.84546e-05, No Iterations 2
smoothSolver:  Solving for k, Initial residual = 0.00359057, Final residual = 0.000212398, No Iterations 2
ExecutionTime = 24.802 s  ClockTime = 24 s

forceCoeffs forceCoeffs1 write:
    Cm    = 0.181088
    Cd    = 0.445475
    Cl    = 0.0254581
    Cl(f) = 0.193817
    Cl(r) = -0.168359

Time = 14s

smoothSolver:  Solving for Ux, Initial residual = 0.00375354, Final residual = 0.000372413, No Iterations 7
smoothSolver:  Solving for Uy, Initial residual = 0.0810938, Final residual = 0.00647637, No Iterations 7
smoothSolver:  Solving for Uz, Initial residual = 0.0989017, Final residual = 0.00831797, No Iterations 7
diagonalPCG:  Solving for p, Initial residual = 0.0231545, Final residual = 0.000226543, No Iterations 80
time step continuity errors : sum local = 0.000503756, global = -3.00602e-05, cumulative = 0.00158613
smoothSolver:  Solving for omega, Initial residual = 0.000482702, Final residual = 3.63785e-05, No Iterations 2
smoothSolver:  Solving for k, Initial residual = 0.00344657, Final residual = 0.000209519, No Iterations 2
ExecutionTime = 26.1656 s  ClockTime = 26 s

forceCoeffs forceCoeffs1 write:
    Cm    = 0.180041
    Cd    = 0.441168
    Cl    = 0.0306773
    Cl(f) = 0.19538
    Cl(r) = -0.164703

Time = 15s

smoothSolver:  Solving for Ux, Initial residual = 0.00361461, Final residual = 0.000361212, No Iterations 7
smoothSolver:  Solving for Uy, Initial residual = 0.0755624, Final residual = 0.00609509, No Iterations 7
smoothSolver:  Solving for Uz, Initial residual = 0.0904955, Final residual = 0.00762545, No Iterations 7
diagonalPCG:  Solving for p, Initial residual = 0.0227457, Final residual = 0.000224292, No Iterations 80
time step continuity errors : sum local = 0.000492674, global = -3.10193e-05, cumulative = 0.00155511
smoothSolver:  Solving for omega, Initial residual = 0.000457529, Final residual = 3.43878e-05, No Iterations 2
smoothSolver:  Solving for k, Initial residual = 0.00332153, Final residual = 0.00020685, No Iterations 2
ExecutionTime = 27.5058 s  ClockTime = 27 s

forceCoeffs forceCoeffs1 write:
    Cm    = 0.18026
    Cd    = 0.439259
    Cl    = 0.0365899
    Cl(f) = 0.198555
    Cl(r) = -0.161965

Time = 16s

smoothSolver:  Solving for Ux, Initial residual = 0.00347218, Final residual = 0.000346855, No Iterations 7
smoothSolver:  Solving for Uy, Initial residual = 0.0707339, Final residual = 0.00577325, No Iterations 7
smoothSolver:  Solving for Uz, Initial residual = 0.0821559, Final residual = 0.00691299, No Iterations 7
diagonalPCG:  Solving for p, Initial residual = 0.022297, Final residual = 0.000222078, No Iterations 82
time step continuity errors : sum local = 0.000482692, global = -8.85913e-06, cumulative = 0.00154625
smoothSolver:  Solving for omega, Initial residual = 0.000434459, Final residual = 3.24677e-05, No Iterations 2
smoothSolver:  Solving for k, Initial residual = 0.0032046, Final residual = 0.000204691, No Iterations 2
ExecutionTime = 28.8533 s  ClockTime = 29 s

forceCoeffs forceCoeffs1 write:
    Cm    = 0.180734
    Cd    = 0.437947
    Cl    = 0.0428488
    Cl(f) = 0.202158
    Cl(r) = -0.159309

Time = 17s

smoothSolver:  Solving for Ux, Initial residual = 0.00333749, Final residual = 0.000249424, No Iterations 8
smoothSolver:  Solving for Uy, Initial residual = 0.0666303, Final residual = 0.00550493, No Iterations 7
smoothSolver:  Solving for Uz, Initial residual = 0.0747124, Final residual = 0.00624549, No Iterations 7
diagonalPCG:  Solving for p, Initial residual = 0.0216695, Final residual = 0.00021331, No Iterations 87
time step continuity errors : sum local = 0.000461278, global = 1.78127e-05, cumulative = 0.00156406
smoothSolver:  Solving for omega, Initial residual = 0.000414127, Final residual = 3.07773e-05, No Iterations 2
smoothSolver:  Solving for k, Initial residual = 0.00309606, Final residual = 0.000202359, No Iterations 2
ExecutionTime = 30.2343 s  ClockTime = 30 s

forceCoeffs forceCoeffs1 write:
    Cm    = 0.180999
    Cd    = 0.437119
    Cl    = 0.0480839
    Cl(f) = 0.205041
    Cl(r) = -0.156957

Time = 18s

smoothSolver:  Solving for Ux, Initial residual = 0.003187, Final residual = 0.000239453, No Iterations 8
smoothSolver:  Solving for Uy, Initial residual = 0.0630754, Final residual = 0.00522637, No Iterations 7
smoothSolver:  Solving for Uz, Initial residual = 0.0683123, Final residual = 0.00567612, No Iterations 7
diagonalPCG:  Solving for p, Initial residual = 0.0209315, Final residual = 0.000208651, No Iterations 86
time step continuity errors : sum local = 0.000450472, global = 2.864e-05, cumulative = 0.0015927
smoothSolver:  Solving for omega, Initial residual = 0.000396221, Final residual = 2.92528e-05, No Iterations 2
smoothSolver:  Solving for k, Initial residual = 0.00300785, Final residual = 0.000200198, No Iterations 2
ExecutionTime = 31.624 s  ClockTime = 31 s

forceCoeffs forceCoeffs1 write:
    Cm    = 0.180962
    Cd    = 0.436554
    Cl    = 0.0507672
    Cl(f) = 0.206346
    Cl(r) = -0.155579

Time = 19s

smoothSolver:  Solving for Ux, Initial residual = 0.00302752, Final residual = 0.000227555, No Iterations 8
smoothSolver:  Solving for Uy, Initial residual = 0.0595397, Final residual = 0.00490736, No Iterations 7
smoothSolver:  Solving for Uz, Initial residual = 0.0631763, Final residual = 0.0052625, No Iterations 7
diagonalPCG:  Solving for p, Initial residual = 0.0202295, Final residual = 0.000201282, No Iterations 80
time step continuity errors : sum local = 0.000434801, global = 2.15622e-05, cumulative = 0.00161426
smoothSolver:  Solving for omega, Initial residual = 0.000378634, Final residual = 2.78801e-05, No Iterations 2
smoothSolver:  Solving for k, Initial residual = 0.0029336, Final residual = 0.000198198, No Iterations 2
ExecutionTime = 32.973 s  ClockTime = 33 s

forceCoeffs forceCoeffs1 write:
    Cm    = 0.180611
    Cd    = 0.435406
    Cl    = 0.0519407
    Cl(f) = 0.206581
    Cl(r) = -0.15464

Time = 20s

smoothSolver:  Solving for Ux, Initial residual = 0.00288297, Final residual = 0.000216185, No Iterations 8
smoothSolver:  Solving for Uy, Initial residual = 0.056301, Final residual = 0.00464187, No Iterations 7
smoothSolver:  Solving for Uz, Initial residual = 0.0597944, Final residual = 0.00501911, No Iterations 7
diagonalPCG:  Solving for p, Initial residual = 0.0197184, Final residual = 0.000194618, No Iterations 75
time step continuity errors : sum local = 0.000420384, global = 1.24271e-05, cumulative = 0.00162669
smoothSolver:  Solving for omega, Initial residual = 0.000364422, Final residual = 2.66812e-05, No Iterations 2
smoothSolver:  Solving for k, Initial residual = 0.0028725, Final residual = 0.000196403, No Iterations 2
ExecutionTime = 34.2915 s  ClockTime = 34 s

forceCoeffs forceCoeffs1 write:
    Cm    = 0.179975
    Cd    = 0.433504
    Cl    = 0.0524076
    Cl(f) = 0.206178
    Cl(r) = -0.153771

Time = 21s

smoothSolver:  Solving for Ux, Initial residual = 0.00276342, Final residual = 0.0002084, No Iterations 8
smoothSolver:  Solving for Uy, Initial residual = 0.0534954, Final residual = 0.00445347, No Iterations 7
smoothSolver:  Solving for Uz, Initial residual = 0.0571766, Final residual = 0.0048566, No Iterations 7
diagonalPCG:  Solving for p, Initial residual = 0.0191834, Final residual = 0.000189288, No Iterations 74
time step continuity errors : sum local = 0.000407989, global = 3.67026e-06, cumulative = 0.00163036
smoothSolver:  Solving for omega, Initial residual = 0.0003508, Final residual = 2.55106e-05, No Iterations 2
smoothSolver:  Solving for k, Initial residual = 0.00281636, Final residual = 0.000193369, No Iterations 2
ExecutionTime = 35.605 s  ClockTime = 35 s

forceCoeffs forceCoeffs1 write:
    Cm    = 0.179377
    Cd    = 0.432033
    Cl    = 0.0517856
    Cl(f) = 0.20527
    Cl(r) = -0.153484

Time = 22s

smoothSolver:  Solving for Ux, Initial residual = 0.00266475, Final residual = 0.000201112, No Iterations 8
smoothSolver:  Solving for Uy, Initial residual = 0.0511832, Final residual = 0.00432037, No Iterations 7
smoothSolver:  Solving for Uz, Initial residual = 0.0548443, Final residual = 0.00470463, No Iterations 7
diagonalPCG:  Solving for p, Initial residual = 0.0186008, Final residual = 0.000182093, No Iterations 73
time step continuity errors : sum local = 0.000391208, global = -2.53042e-06, cumulative = 0.00162783
smoothSolver:  Solving for omega, Initial residual = 0.000337475, Final residual = 2.43669e-05, No Iterations 2
smoothSolver:  Solving for k, Initial residual = 0.00275019, Final residual = 0.000189937, No Iterations 2
ExecutionTime = 36.9388 s  ClockTime = 37 s

forceCoeffs forceCoeffs1 write:
    Cm    = 0.178371
    Cd    = 0.430576
    Cl    = 0.0507007
    Cl(f) = 0.203721
    Cl(r) = -0.15302

Time = 23s

smoothSolver:  Solving for Ux, Initial residual = 0.00257174, Final residual = 0.000194328, No Iterations 8
smoothSolver:  Solving for Uy, Initial residual = 0.0494196, Final residual = 0.00423926, No Iterations 7
smoothSolver:  Solving for Uz, Initial residual = 0.0528548, Final residual = 0.0045494, No Iterations 7
diagonalPCG:  Solving for p, Initial residual = 0.0179696, Final residual = 0.000176188, No Iterations 74
time step continuity errors : sum local = 0.000377028, global = -6.37329e-06, cumulative = 0.00162146
smoothSolver:  Solving for omega, Initial residual = 0.000323923, Final residual = 2.32667e-05, No Iterations 2
smoothSolver:  Solving for k, Initial residual = 0.00267795, Final residual = 0.00018638, No Iterations 2
ExecutionTime = 38.2799 s  ClockTime = 38 s

forceCoeffs forceCoeffs1 write:
    Cm    = 0.176833
    Cd    = 0.428971
    Cl    = 0.0494561
    Cl(f) = 0.201561
    Cl(r) = -0.152105

Time = 24s

smoothSolver:  Solving for Ux, Initial residual = 0.00247461, Final residual = 0.000186441, No Iterations 8
smoothSolver:  Solving for Uy, Initial residual = 0.0483513, Final residual = 0.00417734, No Iterations 7
smoothSolver:  Solving for Uz, Initial residual = 0.0508221, Final residual = 0.00438936, No Iterations 7
diagonalPCG:  Solving for p, Initial residual = 0.0173344, Final residual = 0.000169579, No Iterations 76
time step continuity errors : sum local = 0.000360957, global = -9.06904e-06, cumulative = 0.00161239
smoothSolver:  Solving for omega, Initial residual = 0.000309381, Final residual = 2.22462e-05, No Iterations 2
smoothSolver:  Solving for k, Initial residual = 0.0026194, Final residual = 0.000183384, No Iterations 2
ExecutionTime = 39.6063 s  ClockTime = 39 s

forceCoeffs forceCoeffs1 write:
    Cm    = 0.174686
    Cd    = 0.426651
    Cl    = 0.0485147
    Cl(f) = 0.198943
    Cl(r) = -0.150428

Time = 25s

smoothSolver:  Solving for Ux, Initial residual = 0.00237472, Final residual = 0.000177884, No Iterations 8
smoothSolver:  Solving for Uy, Initial residual = 0.0471887, Final residual = 0.00406483, No Iterations 7
smoothSolver:  Solving for Uz, Initial residual = 0.048576, Final residual = 0.00420868, No Iterations 7
diagonalPCG:  Solving for p, Initial residual = 0.0167369, Final residual = 0.000166337, No Iterations 75
time step continuity errors : sum local = 0.000352023, global = -8.61384e-06, cumulative = 0.00160377
smoothSolver:  Solving for omega, Initial residual = 0.000297855, Final residual = 2.14527e-05, No Iterations 2
smoothSolver:  Solving for k, Initial residual = 0.00258358, Final residual = 0.000182207, No Iterations 2
ExecutionTime = 40.9401 s  ClockTime = 41 s

forceCoeffs forceCoeffs1 write:
    Cm    = 0.171718
    Cd    = 0.42362
    Cl    = 0.0483166
    Cl(f) = 0.195876
    Cl(r) = -0.14756

Time = 26s

smoothSolver:  Solving for Ux, Initial residual = 0.00227932, Final residual = 0.000169548, No Iterations 8
smoothSolver:  Solving for Uy, Initial residual = 0.0459551, Final residual = 0.00393391, No Iterations 7
smoothSolver:  Solving for Uz, Initial residual = 0.0463405, Final residual = 0.00399509, No Iterations 7
diagonalPCG:  Solving for p, Initial residual = 0.0162351, Final residual = 0.000158643, No Iterations 76
time step continuity errors : sum local = 0.000333611, global = -9.46522e-06, cumulative = 0.00159431
smoothSolver:  Solving for omega, Initial residual = 0.000287339, Final residual = 2.06662e-05, No Iterations 2
smoothSolver:  Solving for k, Initial residual = 0.00254659, Final residual = 0.000180864, No Iterations 2
ExecutionTime = 42.2722 s  ClockTime = 42 s

forceCoeffs forceCoeffs1 write:
    Cm    = 0.168785
    Cd    = 0.421108
    Cl    = 0.0493181
    Cl(f) = 0.193444
    Cl(r) = -0.144126

Time = 27s

smoothSolver:  Solving for Ux, Initial residual = 0.00215644, Final residual = 0.000160577, No Iterations 8
smoothSolver:  Solving for Uy, Initial residual = 0.0443237, Final residual = 0.00376508, No Iterations 7
smoothSolver:  Solving for Uz, Initial residual = 0.043825, Final residual = 0.00374728, No Iterations 7
diagonalPCG:  Solving for p, Initial residual = 0.0158164, Final residual = 0.000157102, No Iterations 76
time step continuity errors : sum local = 0.000328247, global = -1.14006e-05, cumulative = 0.00158291
smoothSolver:  Solving for omega, Initial residual = 0.000277128, Final residual = 1.98564e-05, No Iterations 2
smoothSolver:  Solving for k, Initial residual = 0.00250746, Final residual = 0.000178306, No Iterations 2
ExecutionTime = 43.6029 s  ClockTime = 43 s

forceCoeffs forceCoeffs1 write:
    Cm    = 0.16601
    Cd    = 0.418858
    Cl    = 0.0510149
    Cl(f) = 0.191518
    Cl(r) = -0.140503

Time = 28s

smoothSolver:  Solving for Ux, Initial residual = 0.00203741, Final residual = 0.000152633, No Iterations 8
smoothSolver:  Solving for Uy, Initial residual = 0.0422025, Final residual = 0.00356451, No Iterations 7
smoothSolver:  Solving for Uz, Initial residual = 0.0409411, Final residual = 0.00346355, No Iterations 7
diagonalPCG:  Solving for p, Initial residual = 0.0154071, Final residual = 0.00015198, No Iterations 74
time step continuity errors : sum local = 0.000315934, global = -1.467e-05, cumulative = 0.00156824
smoothSolver:  Solving for omega, Initial residual = 0.000267227, Final residual = 1.91287e-05, No Iterations 2
smoothSolver:  Solving for k, Initial residual = 0.00247247, Final residual = 0.000176572, No Iterations 2
ExecutionTime = 44.9368 s  ClockTime = 45 s

forceCoeffs forceCoeffs1 write:
    Cm    = 0.163535
    Cd    = 0.416802
    Cl    = 0.0532699
    Cl(f) = 0.19017
    Cl(r) = -0.1369

Time = 29s

smoothSolver:  Solving for Ux, Initial residual = 0.00191972, Final residual = 0.000144086, No Iterations 8
smoothSolver:  Solving for Uy, Initial residual = 0.0396544, Final residual = 0.00331374, No Iterations 7
smoothSolver:  Solving for Uz, Initial residual = 0.0379889, Final residual = 0.00318558, No Iterations 7
diagonalPCG:  Solving for p, Initial residual = 0.0148787, Final residual = 0.000147354, No Iterations 71
time step continuity errors : sum local = 0.000304825, global = -2.08747e-05, cumulative = 0.00154736
smoothSolver:  Solving for omega, Initial residual = 0.000257588, Final residual = 1.84625e-05, No Iterations 2
smoothSolver:  Solving for k, Initial residual = 0.00244643, Final residual = 0.000175409, No Iterations 2
ExecutionTime = 46.2689 s  ClockTime = 46 s

forceCoeffs forceCoeffs1 write:
    Cm    = 0.161502
    Cd    = 0.414961
    Cl    = 0.0557444
    Cl(f) = 0.189374
    Cl(r) = -0.133629

Time = 30s

smoothSolver:  Solving for Ux, Initial residual = 0.00181463, Final residual = 0.000181181, No Iterations 7
smoothSolver:  Solving for Uy, Initial residual = 0.0370596, Final residual = 0.00306276, No Iterations 7
smoothSolver:  Solving for Uz, Initial residual = 0.0353047, Final residual = 0.00292732, No Iterations 7
diagonalPCG:  Solving for p, Initial residual = 0.0144029, Final residual = 0.000142438, No Iterations 71
time step continuity errors : sum local = 0.000293409, global = -2.69417e-05, cumulative = 0.00152042
smoothSolver:  Solving for omega, Initial residual = 0.000248914, Final residual = 1.78426e-05, No Iterations 2
smoothSolver:  Solving for k, Initial residual = 0.00243123, Final residual = 0.000175002, No Iterations 2
ExecutionTime = 47.5862 s  ClockTime = 47 s

forceCoeffs forceCoeffs1 write:
    Cm    = 0.160021
    Cd    = 0.413342
    Cl    = 0.0578899
    Cl(f) = 0.188966
    Cl(r) = -0.131076

Time = 31s

smoothSolver:  Solving for Ux, Initial residual = 0.00172568, Final residual = 0.000169469, No Iterations 7
smoothSolver:  Solving for Uy, Initial residual = 0.0345977, Final residual = 0.00281105, No Iterations 7
smoothSolver:  Solving for Uz, Initial residual = 0.033071, Final residual = 0.00269292, No Iterations 7
diagonalPCG:  Solving for p, Initial residual = 0.0139339, Final residual = 0.00013887, No Iterations 74
time step continuity errors : sum local = 0.000284823, global = -3.30645e-05, cumulative = 0.00148736
smoothSolver:  Solving for omega, Initial residual = 0.000240418, Final residual = 1.72137e-05, No Iterations 2
smoothSolver:  Solving for k, Initial residual = 0.00242021, Final residual = 0.000174608, No Iterations 2
ExecutionTime = 48.9161 s  ClockTime = 49 s

forceCoeffs forceCoeffs1 write:
    Cm    = 0.158903
    Cd    = 0.411926
    Cl    = 0.0597082
    Cl(f) = 0.188757
    Cl(r) = -0.129049

Time = 32s

smoothSolver:  Solving for Ux, Initial residual = 0.00163871, Final residual = 0.000158187, No Iterations 7
smoothSolver:  Solving for Uy, Initial residual = 0.0325888, Final residual = 0.00259356, No Iterations 7
smoothSolver:  Solving for Uz, Initial residual = 0.031268, Final residual = 0.00249444, No Iterations 7
diagonalPCG:  Solving for p, Initial residual = 0.0135243, Final residual = 0.000135049, No Iterations 82
time step continuity errors : sum local = 0.000275554, global = -3.54532e-05, cumulative = 0.0014519
smoothSolver:  Solving for omega, Initial residual = 0.000232575, Final residual = 1.66172e-05, No Iterations 2
smoothSolver:  Solving for k, Initial residual = 0.00239308, Final residual = 0.000172434, No Iterations 2
ExecutionTime = 50.2642 s  ClockTime = 50 s

forceCoeffs forceCoeffs1 write:
    Cm    = 0.158078
    Cd    = 0.410858
    Cl    = 0.061322
    Cl(f) = 0.188739
    Cl(r) = -0.127417

Time = 33s

smoothSolver:  Solving for Ux, Initial residual = 0.00155174, Final residual = 0.000147427, No Iterations 7
smoothSolver:  Solving for Uy, Initial residual = 0.0310344, Final residual = 0.00242431, No Iterations 7
smoothSolver:  Solving for Uz, Initial residual = 0.0298499, Final residual = 0.0023447, No Iterations 7
diagonalPCG:  Solving for p, Initial residual = 0.013123, Final residual = 0.000129076, No Iterations 81
time step continuity errors : sum local = 0.000261835, global = -3.11797e-05, cumulative = 0.00142072
smoothSolver:  Solving for omega, Initial residual = 0.000225843, Final residual = 1.61098e-05, No Iterations 2
smoothSolver:  Solving for k, Initial residual = 0.0023644, Final residual = 0.000170402, No Iterations 2
ExecutionTime = 51.5848 s  ClockTime = 51 s

forceCoeffs forceCoeffs1 write:
    Cm    = 0.157413
    Cd    = 0.41005
    Cl    = 0.06262
    Cl(f) = 0.188723
    Cl(r) = -0.126103

Time = 34s

smoothSolver:  Solving for Ux, Initial residual = 0.00146793, Final residual = 0.000137733, No Iterations 7
smoothSolver:  Solving for Uy, Initial residual = 0.0299608, Final residual = 0.00230892, No Iterations 7
smoothSolver:  Solving for Uz, Initial residual = 0.0285434, Final residual = 0.00219988, No Iterations 7
diagonalPCG:  Solving for p, Initial residual = 0.012762, Final residual = 0.000127353, No Iterations 78
time step continuity errors : sum local = 0.000257169, global = -2.82619e-05, cumulative = 0.00139246
smoothSolver:  Solving for omega, Initial residual = 0.000219183, Final residual = 1.55949e-05, No Iterations 2
smoothSolver:  Solving for k, Initial residual = 0.00232223, Final residual = 0.000167746, No Iterations 2
ExecutionTime = 52.9173 s  ClockTime = 53 s

forceCoeffs forceCoeffs1 write:
    Cm    = 0.157039
    Cd    = 0.409535
    Cl    = 0.0636154
    Cl(f) = 0.188847
    Cl(r) = -0.125231

Time = 35s

smoothSolver:  Solving for Ux, Initial residual = 0.00139613, Final residual = 0.000129597, No Iterations 7
smoothSolver:  Solving for Uy, Initial residual = 0.0291809, Final residual = 0.00222895, No Iterations 7
smoothSolver:  Solving for Uz, Initial residual = 0.0273128, Final residual = 0.00205971, No Iterations 7
diagonalPCG:  Solving for p, Initial residual = 0.0123933, Final residual = 0.000123537, No Iterations 74
time step continuity errors : sum local = 0.000248361, global = -2.84205e-05, cumulative = 0.00136404
smoothSolver:  Solving for omega, Initial residual = 0.000212877, Final residual = 1.51467e-05, No Iterations 2
smoothSolver:  Solving for k, Initial residual = 0.00228587, Final residual = 0.000165639, No Iterations 2
ExecutionTime = 54.2377 s  ClockTime = 54 s

forceCoeffs forceCoeffs1 write:
    Cm    = 0.156981
    Cd    = 0.409271
    Cl    = 0.0645077
    Cl(f) = 0.189235
    Cl(r) = -0.124727

Time = 36s

smoothSolver:  Solving for Ux, Initial residual = 0.00133134, Final residual = 0.00012227, No Iterations 7
smoothSolver:  Solving for Uy, Initial residual = 0.0284504, Final residual = 0.00215529, No Iterations 7
smoothSolver:  Solving for Uz, Initial residual = 0.026176, Final residual = 0.00193344, No Iterations 7
diagonalPCG:  Solving for p, Initial residual = 0.0119965, Final residual = 0.000119867, No Iterations 82
time step continuity errors : sum local = 0.000239756, global = -3.01115e-05, cumulative = 0.00133393
smoothSolver:  Solving for omega, Initial residual = 0.000206204, Final residual = 1.46288e-05, No Iterations 2
smoothSolver:  Solving for k, Initial residual = 0.0022559, Final residual = 0.000163778, No Iterations 2
ExecutionTime = 55.6096 s  ClockTime = 55 s

forceCoeffs forceCoeffs1 write:
    Cm    = 0.157015
    Cd    = 0.409001
    Cl    = 0.0655596
    Cl(f) = 0.189795
    Cl(r) = -0.124236

Time = 37s

smoothSolver:  Solving for Ux, Initial residual = 0.00126923, Final residual = 0.000115833, No Iterations 7
smoothSolver:  Solving for Uy, Initial residual = 0.0276772, Final residual = 0.0020875, No Iterations 7
smoothSolver:  Solving for Uz, Initial residual = 0.0251338, Final residual = 0.00250923, No Iterations 6
diagonalPCG:  Solving for p, Initial residual = 0.0116165, Final residual = 0.000115567, No Iterations 71
time step continuity errors : sum local = 0.000229796, global = -2.43588e-05, cumulative = 0.00130957
smoothSolver:  Solving for omega, Initial residual = 0.000199844, Final residual = 1.41375e-05, No Iterations 2
smoothSolver:  Solving for k, Initial residual = 0.00223037, Final residual = 0.00016126, No Iterations 2
ExecutionTime = 56.9073 s  ClockTime = 57 s

forceCoeffs forceCoeffs1 write:
    Cm    = 0.157282
    Cd    = 0.40876
    Cl    = 0.0659045
    Cl(f) = 0.190234
    Cl(r) = -0.12433

Time = 38s

smoothSolver:  Solving for Ux, Initial residual = 0.00120849, Final residual = 0.000110081, No Iterations 7
smoothSolver:  Solving for Uy, Initial residual = 0.0267573, Final residual = 0.00199509, No Iterations 7
smoothSolver:  Solving for Uz, Initial residual = 0.0241483, Final residual = 0.00177203, No Iterations 7
diagonalPCG:  Solving for p, Initial residual = 0.0112356, Final residual = 0.000111894, No Iterations 81
time step continuity errors : sum local = 0.000221472, global = -2.50463e-05, cumulative = 0.00128452
smoothSolver:  Solving for omega, Initial residual = 0.000192993, Final residual = 1.36436e-05, No Iterations 2
smoothSolver:  Solving for k, Initial residual = 0.00218395, Final residual = 0.000158385, No Iterations 2
ExecutionTime = 58.2688 s  ClockTime = 58 s

forceCoeffs forceCoeffs1 write:
    Cm    = 0.157709
    Cd    = 0.408476
    Cl    = 0.0660858
    Cl(f) = 0.190752
    Cl(r) = -0.124666

Time = 39s

smoothSolver:  Solving for Ux, Initial residual = 0.00115646, Final residual = 0.000104583, No Iterations 7
smoothSolver:  Solving for Uy, Initial residual = 0.0259437, Final residual = 0.00192156, No Iterations 7
smoothSolver:  Solving for Uz, Initial residual = 0.0231761, Final residual = 0.00231443, No Iterations 6
diagonalPCG:  Solving for p, Initial residual = 0.0108229, Final residual = 0.000106941, No Iterations 52
time step continuity errors : sum local = 0.000210524, global = -1.76339e-05, cumulative = 0.00126689
smoothSolver:  Solving for omega, Initial residual = 0.000186347, Final residual = 1.3169e-05, No Iterations 2
smoothSolver:  Solving for k, Initial residual = 0.00213632, Final residual = 0.00015575, No Iterations 2
ExecutionTime = 59.49 s  ClockTime = 59 s

forceCoeffs forceCoeffs1 write:
    Cm    = 0.158197
    Cd    = 0.407994
    Cl    = 0.0653493
    Cl(f) = 0.190871
    Cl(r) = -0.125522

Time = 40s

smoothSolver:  Solving for Ux, Initial residual = 0.00110472, Final residual = 9.93556e-05, No Iterations 7
smoothSolver:  Solving for Uy, Initial residual = 0.0249119, Final residual = 0.00183539, No Iterations 7
smoothSolver:  Solving for Uz, Initial residual = 0.0222097, Final residual = 0.00221781, No Iterations 6
diagonalPCG:  Solving for p, Initial residual = 0.0104038, Final residual = 0.000104029, No Iterations 67
time step continuity errors : sum local = 0.000204276, global = -1.62906e-05, cumulative = 0.0012506
smoothSolver:  Solving for omega, Initial residual = 0.000179337, Final residual = 1.27122e-05, No Iterations 2
smoothSolver:  Solving for k, Initial residual = 0.00208724, Final residual = 0.000153573, No Iterations 2
ExecutionTime = 60.7764 s  ClockTime = 60 s

forceCoeffs forceCoeffs1 write:
    Cm    = 0.158746
    Cd    = 0.407427
    Cl    = 0.0643339
    Cl(f) = 0.190913
    Cl(r) = -0.126579

Time = 41s

smoothSolver:  Solving for Ux, Initial residual = 0.00107019, Final residual = 9.60689e-05, No Iterations 7
smoothSolver:  Solving for Uy, Initial residual = 0.0242858, Final residual = 0.00179163, No Iterations 7
smoothSolver:  Solving for Uz, Initial residual = 0.0216707, Final residual = 0.00159573, No Iterations 7
diagonalPCG:  Solving for p, Initial residual = 0.0100274, Final residual = 9.9817e-05, No Iterations 60
time step continuity errors : sum local = 0.000195244, global = -1.7007e-05, cumulative = 0.00123359
smoothSolver:  Solving for omega, Initial residual = 0.0001729, Final residual = 1.2264e-05, No Iterations 2
smoothSolver:  Solving for k, Initial residual = 0.00204406, Final residual = 0.000151572, No Iterations 2
ExecutionTime = 62.0274 s  ClockTime = 62 s

forceCoeffs forceCoeffs1 write:
    Cm    = 0.159329
    Cd    = 0.407045
    Cl    = 0.0630745
    Cl(f) = 0.190867
    Cl(r) = -0.127792

Time = 42s

smoothSolver:  Solving for Ux, Initial residual = 0.00103788, Final residual = 9.35598e-05, No Iterations 7
smoothSolver:  Solving for Uy, Initial residual = 0.0233166, Final residual = 0.00171784, No Iterations 7
smoothSolver:  Solving for Uz, Initial residual = 0.0211221, Final residual = 0.00154866, No Iterations 7
diagonalPCG:  Solving for p, Initial residual = 0.00969552, Final residual = 9.62489e-05, No Iterations 61
time step continuity errors : sum local = 0.000187681, global = -1.71288e-05, cumulative = 0.00121646
smoothSolver:  Solving for omega, Initial residual = 0.000167266, Final residual = 1.18477e-05, No Iterations 2
smoothSolver:  Solving for k, Initial residual = 0.00201601, Final residual = 0.000150113, No Iterations 2
ExecutionTime = 63.2679 s  ClockTime = 63 s

forceCoeffs forceCoeffs1 write:
    Cm    = 0.159974
    Cd    = 0.406939
    Cl    = 0.0619796
    Cl(f) = 0.190964
    Cl(r) = -0.128984

Time = 43s

smoothSolver:  Solving for Ux, Initial residual = 0.00101097, Final residual = 9.14372e-05, No Iterations 7
smoothSolver:  Solving for Uy, Initial residual = 0.022401, Final residual = 0.00165583, No Iterations 7
smoothSolver:  Solving for Uz, Initial residual = 0.0207, Final residual = 0.0015161, No Iterations 7
diagonalPCG:  Solving for p, Initial residual = 0.00940201, Final residual = 9.17503e-05, No Iterations 60
time step continuity errors : sum local = 0.000178384, global = -1.6741e-05, cumulative = 0.00119972
smoothSolver:  Solving for omega, Initial residual = 0.000162086, Final residual = 1.14517e-05, No Iterations 2
smoothSolver:  Solving for k, Initial residual = 0.00199604, Final residual = 0.000148728, No Iterations 2
ExecutionTime = 64.5088 s  ClockTime = 64 s

forceCoeffs forceCoeffs1 write:
    Cm    = 0.16058
    Cd    = 0.407085
    Cl    = 0.0611333
    Cl(f) = 0.191147
    Cl(r) = -0.130013

Time = 44s

smoothSolver:  Solving for Ux, Initial residual = 0.000985121, Final residual = 8.96183e-05, No Iterations 7
smoothSolver:  Solving for Uy, Initial residual = 0.0212825, Final residual = 0.00158914, No Iterations 7
smoothSolver:  Solving for Uz, Initial residual = 0.0201791, Final residual = 0.00148663, No Iterations 7
diagonalPCG:  Solving for p, Initial residual = 0.0091167, Final residual = 8.88166e-05, No Iterations 59
time step continuity errors : sum local = 0.000172264, global = -1.58799e-05, cumulative = 0.00118384
smoothSolver:  Solving for omega, Initial residual = 0.000157299, Final residual = 1.10777e-05, No Iterations 2
smoothSolver:  Solving for k, Initial residual = 0.00197519, Final residual = 0.000147267, No Iterations 2
ExecutionTime = 65.7342 s  ClockTime = 65 s

forceCoeffs forceCoeffs1 write:
    Cm    = 0.161118
    Cd    = 0.407402
    Cl    = 0.0605291
    Cl(f) = 0.191382
    Cl(r) = -0.130853

Time = 45s

smoothSolver:  Solving for Ux, Initial residual = 0.000952505, Final residual = 8.79039e-05, No Iterations 7
smoothSolver:  Solving for Uy, Initial residual = 0.0200918, Final residual = 0.00152221, No Iterations 7
smoothSolver:  Solving for Uz, Initial residual = 0.0195873, Final residual = 0.00145895, No Iterations 7
diagonalPCG:  Solving for p, Initial residual = 0.00884216, Final residual = 8.47996e-05, No Iterations 59
time step continuity errors : sum local = 0.000164156, global = -1.46692e-05, cumulative = 0.00116917
smoothSolver:  Solving for omega, Initial residual = 0.00015255, Final residual = 1.0722e-05, No Iterations 2
smoothSolver:  Solving for k, Initial residual = 0.00194853, Final residual = 0.000145011, No Iterations 2
ExecutionTime = 66.9703 s  ClockTime = 67 s

forceCoeffs forceCoeffs1 write:
    Cm    = 0.161552
    Cd    = 0.407837
    Cl    = 0.0602571
    Cl(f) = 0.191681
    Cl(r) = -0.131424

Time = 46s

smoothSolver:  Solving for Ux, Initial residual = 0.000921706, Final residual = 8.62158e-05, No Iterations 7
smoothSolver:  Solving for Uy, Initial residual = 0.0190352, Final residual = 0.00146401, No Iterations 7
smoothSolver:  Solving for Uz, Initial residual = 0.0188648, Final residual = 0.00142341, No Iterations 7
diagonalPCG:  Solving for p, Initial residual = 0.00855849, Final residual = 8.36688e-05, No Iterations 61
time step continuity errors : sum local = 0.0001617, global = -1.34026e-05, cumulative = 0.00115577
smoothSolver:  Solving for omega, Initial residual = 0.000148045, Final residual = 1.0349e-05, No Iterations 2
smoothSolver:  Solving for k, Initial residual = 0.00191189, Final residual = 0.000141855, No Iterations 2
ExecutionTime = 68.2161 s  ClockTime = 68 s

forceCoeffs forceCoeffs1 write:
    Cm    = 0.161838
    Cd    = 0.408191
    Cl    = 0.0601504
    Cl(f) = 0.191913
    Cl(r) = -0.131763

Time = 47s

smoothSolver:  Solving for Ux, Initial residual = 0.0008939, Final residual = 8.52722e-05, No Iterations 7
smoothSolver:  Solving for Uy, Initial residual = 0.0182041, Final residual = 0.00141611, No Iterations 7
smoothSolver:  Solving for Uz, Initial residual = 0.0180387, Final residual = 0.00137785, No Iterations 7
diagonalPCG:  Solving for p, Initial residual = 0.00825035, Final residual = 8.10195e-05, No Iterations 79
time step continuity errors : sum local = 0.000156353, global = -7.50181e-06, cumulative = 0.00114827
smoothSolver:  Solving for omega, Initial residual = 0.000142892, Final residual = 9.95389e-06, No Iterations 2
smoothSolver:  Solving for k, Initial residual = 0.00185954, Final residual = 0.000138102, No Iterations 2
ExecutionTime = 69.5536 s  ClockTime = 69 s

forceCoeffs forceCoeffs1 write:
    Cm    = 0.162067
    Cd    = 0.40861
    Cl    = 0.0599281
    Cl(f) = 0.192031
    Cl(r) = -0.132103

Time = 48s

smoothSolver:  Solving for Ux, Initial residual = 0.000874167, Final residual = 8.50371e-05, No Iterations 7
smoothSolver:  Solving for Uy, Initial residual = 0.0176289, Final residual = 0.00139715, No Iterations 7
smoothSolver:  Solving for Uz, Initial residual = 0.0173162, Final residual = 0.00134797, No Iterations 7
diagonalPCG:  Solving for p, Initial residual = 0.00795029, Final residual = 7.95027e-05, No Iterations 71
time step continuity errors : sum local = 0.000153262, global = -5.65957e-06, cumulative = 0.00114261
smoothSolver:  Solving for omega, Initial residual = 0.000137559, Final residual = 9.59027e-06, No Iterations 2
smoothSolver:  Solving for k, Initial residual = 0.00179866, Final residual = 0.000134337, No Iterations 2
ExecutionTime = 70.8616 s  ClockTime = 71 s

forceCoeffs forceCoeffs1 write:
    Cm    = 0.161905
    Cd    = 0.408572
    Cl    = 0.0599536
    Cl(f) = 0.191882
    Cl(r) = -0.131928

Time = 49s

smoothSolver:  Solving for Ux, Initial residual = 0.000855808, Final residual = 8.43057e-05, No Iterations 7
smoothSolver:  Solving for Uy, Initial residual = 0.017175, Final residual = 0.00137023, No Iterations 7
smoothSolver:  Solving for Uz, Initial residual = 0.0164789, Final residual = 0.001304, No Iterations 7
diagonalPCG:  Solving for p, Initial residual = 0.00767317, Final residual = 7.6379e-05, No Iterations 68
time step continuity errors : sum local = 0.000147156, global = -8.10689e-06, cumulative = 0.0011345
smoothSolver:  Solving for omega, Initial residual = 0.000132487, Final residual = 9.26999e-06, No Iterations 2
smoothSolver:  Solving for k, Initial residual = 0.00173997, Final residual = 0.000130594, No Iterations 2
ExecutionTime = 72.1651 s  ClockTime = 72 s

forceCoeffs forceCoeffs1 write:
    Cm    = 0.161566
    Cd    = 0.408398
    Cl    = 0.0599578
    Cl(f) = 0.191545
    Cl(r) = -0.131587

Time = 50s

smoothSolver:  Solving for Ux, Initial residual = 0.000837614, Final residual = 8.31958e-05, No Iterations 7
smoothSolver:  Solving for Uy, Initial residual = 0.0168833, Final residual = 0.00134911, No Iterations 7
smoothSolver:  Solving for Uz, Initial residual = 0.0157778, Final residual = 0.00126695, No Iterations 7
diagonalPCG:  Solving for p, Initial residual = 0.00743193, Final residual = 7.35224e-05, No Iterations 61
time step continuity errors : sum local = 0.000141581, global = -1.13563e-05, cumulative = 0.00112315
smoothSolver:  Solving for omega, Initial residual = 0.000128016, Final residual = 8.95821e-06, No Iterations 2
smoothSolver:  Solving for k, Initial residual = 0.0016851, Final residual = 0.000126996, No Iterations 2
ExecutionTime = 73.4299 s  ClockTime = 73 s

forceCoeffs forceCoeffs1 write:
    Cm    = 0.161073
    Cd    = 0.408042
    Cl    = 0.0601929
    Cl(f) = 0.191169
    Cl(r) = -0.130976

Time = 51s

smoothSolver:  Solving for Ux, Initial residual = 0.000818063, Final residual = 6.13453e-05, No Iterations 8
smoothSolver:  Solving for Uy, Initial residual = 0.0164999, Final residual = 0.00130306, No Iterations 7
smoothSolver:  Solving for Uz, Initial residual = 0.0151707, Final residual = 0.00121793, No Iterations 7
diagonalPCG:  Solving for p, Initial residual = 0.00717454, Final residual = 6.92512e-05, No Iterations 62
time step continuity errors : sum local = 0.000133293, global = -1.62752e-05, cumulative = 0.00110687
smoothSolver:  Solving for omega, Initial residual = 0.000123646, Final residual = 8.63714e-06, No Iterations 2
smoothSolver:  Solving for k, Initial residual = 0.00163603, Final residual = 0.000123606, No Iterations 2
ExecutionTime = 74.7054 s  ClockTime = 74 s

forceCoeffs forceCoeffs1 write:
    Cm    = 0.160458
    Cd    = 0.407758
    Cl    = 0.0604659
    Cl(f) = 0.190691
    Cl(r) = -0.130225

Time = 52s

smoothSolver:  Solving for Ux, Initial residual = 0.000793246, Final residual = 5.9673e-05, No Iterations 8
smoothSolver:  Solving for Uy, Initial residual = 0.0160383, Final residual = 0.00124456, No Iterations 7
smoothSolver:  Solving for Uz, Initial residual = 0.0146997, Final residual = 0.00117073, No Iterations 7
diagonalPCG:  Solving for p, Initial residual = 0.00692344, Final residual = 6.90221e-05, No Iterations 66
time step continuity errors : sum local = 0.000132782, global = -2.07864e-05, cumulative = 0.00108609
smoothSolver:  Solving for omega, Initial residual = 0.000119395, Final residual = 8.33722e-06, No Iterations 2
smoothSolver:  Solving for k, Initial residual = 0.00159274, Final residual = 0.000120552, No Iterations 2
ExecutionTime = 75.9806 s  ClockTime = 76 s

forceCoeffs forceCoeffs1 write:
    Cm    = 0.159847
    Cd    = 0.407535
    Cl    = 0.0611365
    Cl(f) = 0.190415
    Cl(r) = -0.129279

Time = 53s

smoothSolver:  Solving for Ux, Initial residual = 0.000766309, Final residual = 5.72194e-05, No Iterations 8
smoothSolver:  Solving for Uy, Initial residual = 0.0156067, Final residual = 0.0011864, No Iterations 7
smoothSolver:  Solving for Uz, Initial residual = 0.014267, Final residual = 0.00112543, No Iterations 7
diagonalPCG:  Solving for p, Initial residual = 0.00669559, Final residual = 6.61696e-05, No Iterations 87
time step continuity errors : sum local = 0.000127198, global = -1.9654e-05, cumulative = 0.00106643
smoothSolver:  Solving for omega, Initial residual = 0.000115212, Final residual = 8.06094e-06, No Iterations 2
smoothSolver:  Solving for k, Initial residual = 0.00155071, Final residual = 0.000117827, No Iterations 2
ExecutionTime = 77.3718 s  ClockTime = 77 s

forceCoeffs forceCoeffs1 write:
    Cm    = 0.159009
    Cd    = 0.40714
    Cl    = 0.0621941
    Cl(f) = 0.190107
    Cl(r) = -0.127912

Time = 54s

smoothSolver:  Solving for Ux, Initial residual = 0.000738737, Final residual = 7.26092e-05, No Iterations 7
smoothSolver:  Solving for Uy, Initial residual = 0.0152218, Final residual = 0.0011379, No Iterations 7
smoothSolver:  Solving for Uz, Initial residual = 0.0139565, Final residual = 0.00108736, No Iterations 7
diagonalPCG:  Solving for p, Initial residual = 0.0065155, Final residual = 6.40531e-05, No Iterations 88
time step continuity errors : sum local = 0.000122888, global = -1.67518e-05, cumulative = 0.00104968
smoothSolver:  Solving for omega, Initial residual = 0.000111372, Final residual = 7.79173e-06, No Iterations 2
smoothSolver:  Solving for k, Initial residual = 0.00151083, Final residual = 0.000115424, No Iterations 2
ExecutionTime = 78.7668 s  ClockTime = 79 s

forceCoeffs forceCoeffs1 write:
    Cm    = 0.158283
    Cd    = 0.40675
    Cl    = 0.0634212
    Cl(f) = 0.189993
    Cl(r) = -0.126572

Time = 55s

smoothSolver:  Solving for Ux, Initial residual = 0.000714439, Final residual = 6.87842e-05, No Iterations 7
smoothSolver:  Solving for Uy, Initial residual = 0.0147948, Final residual = 0.00109841, No Iterations 7
smoothSolver:  Solving for Uz, Initial residual = 0.0135469, Final residual = 0.00105012, No Iterations 7
diagonalPCG:  Solving for p, Initial residual = 0.00634348, Final residual = 6.28331e-05, No Iterations 88
time step continuity errors : sum local = 0.000120291, global = -1.55392e-05, cumulative = 0.00103414
smoothSolver:  Solving for omega, Initial residual = 0.000107826, Final residual = 7.53081e-06, No Iterations 2
smoothSolver:  Solving for k, Initial residual = 0.00147479, Final residual = 0.000113138, No Iterations 2
ExecutionTime = 80.1473 s  ClockTime = 80 s

forceCoeffs forceCoeffs1 write:
    Cm    = 0.15766
    Cd    = 0.40647
    Cl    = 0.0646611
    Cl(f) = 0.189991
    Cl(r) = -0.12533

Time = 56s

smoothSolver:  Solving for Ux, Initial residual = 0.000690742, Final residual = 6.51731e-05, No Iterations 7
smoothSolver:  Solving for Uy, Initial residual = 0.0144497, Final residual = 0.00107061, No Iterations 7
smoothSolver:  Solving for Uz, Initial residual = 0.0131824, Final residual = 0.00102953, No Iterations 7
diagonalPCG:  Solving for p, Initial residual = 0.00619668, Final residual = 6.18183e-05, No Iterations 80
time step continuity errors : sum local = 0.000118111, global = -1.45373e-05, cumulative = 0.0010196
smoothSolver:  Solving for omega, Initial residual = 0.000104289, Final residual = 7.28479e-06, No Iterations 2
smoothSolver:  Solving for k, Initial residual = 0.00143917, Final residual = 0.000110864, No Iterations 2
ExecutionTime = 81.4765 s  ClockTime = 81 s

forceCoeffs forceCoeffs1 write:
    Cm    = 0.157259
    Cd    = 0.406287
    Cl    = 0.0657448
    Cl(f) = 0.190131
    Cl(r) = -0.124387

Time = 57s

smoothSolver:  Solving for Ux, Initial residual = 0.000668604, Final residual = 6.17967e-05, No Iterations 7
smoothSolver:  Solving for Uy, Initial residual = 0.0141587, Final residual = 0.00103352, No Iterations 7
smoothSolver:  Solving for Uz, Initial residual = 0.0128919, Final residual = 0.0010026, No Iterations 7
diagonalPCG:  Solving for p, Initial residual = 0.00606329, Final residual = 6.04528e-05, No Iterations 80
time step continuity errors : sum local = 0.000115325, global = -1.47051e-05, cumulative = 0.0010049
smoothSolver:  Solving for omega, Initial residual = 0.000100947, Final residual = 7.07364e-06, No Iterations 2
smoothSolver:  Solving for k, Initial residual = 0.00140517, Final residual = 0.00010864, No Iterations 2
ExecutionTime = 82.8299 s  ClockTime = 83 s

forceCoeffs forceCoeffs1 write:
    Cm    = 0.156857
    Cd    = 0.406045
    Cl    = 0.0664274
    Cl(f) = 0.190071
    Cl(r) = -0.123644

Time = 58s

smoothSolver:  Solving for Ux, Initial residual = 0.000648169, Final residual = 5.84686e-05, No Iterations 7
smoothSolver:  Solving for Uy, Initial residual = 0.013865, Final residual = 0.00136714, No Iterations 6
smoothSolver:  Solving for Uz, Initial residual = 0.0126941, Final residual = 0.000973912, No Iterations 7
diagonalPCG:  Solving for p, Initial residual = 0.00595634, Final residual = 5.85675e-05, No Iterations 73
time step continuity errors : sum local = 0.000111551, global = -1.55927e-05, cumulative = 0.000989306
smoothSolver:  Solving for omega, Initial residual = 9.78434e-05, Final residual = 6.85266e-06, No Iterations 2
smoothSolver:  Solving for k, Initial residual = 0.00137506, Final residual = 0.000106279, No Iterations 2
ExecutionTime = 84.1398 s  ClockTime = 84 s

forceCoeffs forceCoeffs1 write:
    Cm    = 0.156612
    Cd    = 0.405869
    Cl    = 0.0668215
    Cl(f) = 0.190023
    Cl(r) = -0.123201

Time = 59s

smoothSolver:  Solving for Ux, Initial residual = 0.000627643, Final residual = 5.55221e-05, No Iterations 7
smoothSolver:  Solving for Uy, Initial residual = 0.0136335, Final residual = 0.00133272, No Iterations 6
smoothSolver:  Solving for Uz, Initial residual = 0.012559, Final residual = 0.000944035, No Iterations 7
diagonalPCG:  Solving for p, Initial residual = 0.00586213, Final residual = 5.84729e-05, No Iterations 68
time step continuity errors : sum local = 0.000111245, global = -1.61381e-05, cumulative = 0.000973168
smoothSolver:  Solving for omega, Initial residual = 9.47882e-05, Final residual = 6.6312e-06, No Iterations 2
smoothSolver:  Solving for k, Initial residual = 0.00135047, Final residual = 0.000104194, No Iterations 2
ExecutionTime = 85.4213 s  ClockTime = 85 s

forceCoeffs forceCoeffs1 write:
    Cm    = 0.1564
    Cd    = 0.405795
    Cl    = 0.066728
    Cl(f) = 0.189764
    Cl(r) = -0.123036

Time = 60s

smoothSolver:  Solving for Ux, Initial residual = 0.000605887, Final residual = 5.34775e-05, No Iterations 7
smoothSolver:  Solving for Uy, Initial residual = 0.0133843, Final residual = 0.00129802, No Iterations 6
smoothSolver:  Solving for Uz, Initial residual = 0.0124297, Final residual = 0.000919998, No Iterations 7
diagonalPCG:  Solving for p, Initial residual = 0.0057481, Final residual = 5.68023e-05, No Iterations 64
time step continuity errors : sum local = 0.000107971, global = -1.59464e-05, cumulative = 0.000957221
smoothSolver:  Solving for omega, Initial residual = 9.1628e-05, Final residual = 6.40838e-06, No Iterations 2
smoothSolver:  Solving for k, Initial residual = 0.00132523, Final residual = 0.000102202, No Iterations 2
ExecutionTime = 86.6778 s  ClockTime = 86 s

forceCoeffs forceCoeffs1 write:
    Cm    = 0.156396
    Cd    = 0.406008
    Cl    = 0.0666066
    Cl(f) = 0.189699
    Cl(r) = -0.123093

Time = 61s

smoothSolver:  Solving for Ux, Initial residual = 0.000584347, Final residual = 5.16969e-05, No Iterations 7
smoothSolver:  Solving for Uy, Initial residual = 0.0130393, Final residual = 0.00125761, No Iterations 6
smoothSolver:  Solving for Uz, Initial residual = 0.0122776, Final residual = 0.00122259, No Iterations 6
diagonalPCG:  Solving for p, Initial residual = 0.00556395, Final residual = 5.43522e-05, No Iterations 64
time step continuity errors : sum local = 0.000103244, global = -1.53469e-05, cumulative = 0.000941874
smoothSolver:  Solving for omega, Initial residual = 8.87488e-05, Final residual = 6.20859e-06, No Iterations 2
smoothSolver:  Solving for k, Initial residual = 0.00129724, Final residual = 0.00010018, No Iterations 2
ExecutionTime = 87.927 s  ClockTime = 88 s

forceCoeffs forceCoeffs1 write:
    Cm    = 0.156392
    Cd    = 0.406389
    Cl    = 0.066217
    Cl(f) = 0.1895
    Cl(r) = -0.123283

Time = 62s

smoothSolver:  Solving for Ux, Initial residual = 0.000560724, Final residual = 4.98889e-05, No Iterations 7
smoothSolver:  Solving for Uy, Initial residual = 0.0125831, Final residual = 0.0012192, No Iterations 6
smoothSolver:  Solving for Uz, Initial residual = 0.0120566, Final residual = 0.000903529, No Iterations 7
diagonalPCG:  Solving for p, Initial residual = 0.00536397, Final residual = 5.24051e-05, No Iterations 62
time step continuity errors : sum local = 9.94865e-05, global = -1.46454e-05, cumulative = 0.000927229
smoothSolver:  Solving for omega, Initial residual = 8.58138e-05, Final residual = 6.01453e-06, No Iterations 2
smoothSolver:  Solving for k, Initial residual = 0.00126297, Final residual = 9.7937e-05, No Iterations 2
ExecutionTime = 89.1714 s  ClockTime = 89 s

forceCoeffs forceCoeffs1 write:
    Cm    = 0.156527
    Cd    = 0.406923
    Cl    = 0.0660114
    Cl(f) = 0.189533
    Cl(r) = -0.123521

Time = 63s

smoothSolver:  Solving for Ux, Initial residual = 0.000538196, Final residual = 4.86633e-05, No Iterations 7
smoothSolver:  Solving for Uy, Initial residual = 0.0121204, Final residual = 0.00119131, No Iterations 6
smoothSolver:  Solving for Uz, Initial residual = 0.0116255, Final residual = 0.000883988, No Iterations 7
diagonalPCG:  Solving for p, Initial residual = 0.00513919, Final residual = 5.06433e-05, No Iterations 58
time step continuity errors : sum local = 9.61052e-05, global = -1.5221e-05, cumulative = 0.000912008
smoothSolver:  Solving for omega, Initial residual = 8.29814e-05, Final residual = 5.82349e-06, No Iterations 2
smoothSolver:  Solving for k, Initial residual = 0.00122667, Final residual = 9.55195e-05, No Iterations 2
ExecutionTime = 90.4102 s  ClockTime = 90 s

forceCoeffs forceCoeffs1 write:
    Cm    = 0.1566
    Cd    = 0.407469
    Cl    = 0.0657565
    Cl(f) = 0.189478
    Cl(r) = -0.123722

Time = 64s

smoothSolver:  Solving for Ux, Initial residual = 0.000518871, Final residual = 4.79347e-05, No Iterations 7
smoothSolver:  Solving for Uy, Initial residual = 0.0116407, Final residual = 0.00115962, No Iterations 6
smoothSolver:  Solving for Uz, Initial residual = 0.0111195, Final residual = 0.000852987, No Iterations 7
diagonalPCG:  Solving for p, Initial residual = 0.00490359, Final residual = 4.89049e-05, No Iterations 56
time step continuity errors : sum local = 9.27797e-05, global = -1.62846e-05, cumulative = 0.000895723
smoothSolver:  Solving for omega, Initial residual = 8.0283e-05, Final residual = 5.63433e-06, No Iterations 2
smoothSolver:  Solving for k, Initial residual = 0.0011943, Final residual = 9.30598e-05, No Iterations 2
ExecutionTime = 91.6524 s  ClockTime = 91 s

forceCoeffs forceCoeffs1 write:
    Cm    = 0.156718
    Cd    = 0.407988
    Cl    = 0.0656917
    Cl(f) = 0.189564
    Cl(r) = -0.123872

Time = 65s

smoothSolver:  Solving for Ux, Initial residual = 0.000502413, Final residual = 4.72746e-05, No Iterations 7
smoothSolver:  Solving for Uy, Initial residual = 0.0111728, Final residual = 0.000830862, No Iterations 7
smoothSolver:  Solving for Uz, Initial residual = 0.010635, Final residual = 0.000822292, No Iterations 7
diagonalPCG:  Solving for p, Initial residual = 0.00471556, Final residual = 4.67151e-05, No Iterations 65
time step continuity errors : sum local = 8.86245e-05, global = -1.40736e-05, cumulative = 0.00088165
smoothSolver:  Solving for omega, Initial residual = 7.80281e-05, Final residual = 5.49565e-06, No Iterations 2
smoothSolver:  Solving for k, Initial residual = 0.0011621, Final residual = 9.07811e-05, No Iterations 2
ExecutionTime = 92.9327 s  ClockTime = 93 s

forceCoeffs forceCoeffs1 write:
    Cm    = 0.156823
    Cd    = 0.408457
    Cl    = 0.0654978
    Cl(f) = 0.189572
    Cl(r) = -0.124074

Time = 66s

smoothSolver:  Solving for Ux, Initial residual = 0.000488534, Final residual = 4.65587e-05, No Iterations 7
smoothSolver:  Solving for Uy, Initial residual = 0.0106602, Final residual = 0.000800304, No Iterations 7
smoothSolver:  Solving for Uz, Initial residual = 0.0102437, Final residual = 0.000795244, No Iterations 7
diagonalPCG:  Solving for p, Initial residual = 0.00455906, Final residual = 4.53081e-05, No Iterations 70
time step continuity errors : sum local = 8.59662e-05, global = -9.06322e-06, cumulative = 0.000872587
smoothSolver:  Solving for omega, Initial residual = 7.62962e-05, Final residual = 5.36407e-06, No Iterations 2
smoothSolver:  Solving for k, Initial residual = 0.00113101, Final residual = 8.85051e-05, No Iterations 2
ExecutionTime = 94.2346 s  ClockTime = 94 s

forceCoeffs forceCoeffs1 write:
    Cm    = 0.156975
    Cd    = 0.408833
    Cl    = 0.0653143
    Cl(f) = 0.189633
    Cl(r) = -0.124318

Time = 67s

smoothSolver:  Solving for Ux, Initial residual = 0.000477223, Final residual = 4.59738e-05, No Iterations 7
smoothSolver:  Solving for Uy, Initial residual = 0.0102111, Final residual = 0.000773402, No Iterations 7
smoothSolver:  Solving for Uz, Initial residual = 0.00990147, Final residual = 0.000769171, No Iterations 7
diagonalPCG:  Solving for p, Initial residual = 0.00444668, Final residual = 4.39623e-05, No Iterations 73
time step continuity errors : sum local = 8.34507e-05, global = -3.84415e-06, cumulative = 0.000868742
smoothSolver:  Solving for omega, Initial residual = 7.4903e-05, Final residual = 5.24436e-06, No Iterations 2
smoothSolver:  Solving for k, Initial residual = 0.00110061, Final residual = 8.61981e-05, No Iterations 2
ExecutionTime = 95.5684 s  ClockTime = 95 s

forceCoeffs forceCoeffs1 write:
    Cm    = 0.157188
    Cd    = 0.409248
    Cl    = 0.0649523
    Cl(f) = 0.189664
    Cl(r) = -0.124712

Time = 68s

smoothSolver:  Solving for Ux, Initial residual = 0.000468961, Final residual = 4.56525e-05, No Iterations 7
smoothSolver:  Solving for Uy, Initial residual = 0.0098752, Final residual = 0.000752798, No Iterations 7
smoothSolver:  Solving for Uz, Initial residual = 0.00960326, Final residual = 0.000745009, No Iterations 7
diagonalPCG:  Solving for p, Initial residual = 0.00433933, Final residual = 4.27945e-05, No Iterations 74
time step continuity errors : sum local = 8.12845e-05, global = -1.8008e-07, cumulative = 0.000868562
smoothSolver:  Solving for omega, Initial residual = 7.33704e-05, Final residual = 5.11758e-06, No Iterations 2
smoothSolver:  Solving for k, Initial residual = 0.00106959, Final residual = 8.38905e-05, No Iterations 2
ExecutionTime = 96.8961 s  ClockTime = 97 s

forceCoeffs forceCoeffs1 write:
    Cm    = 0.157492
    Cd    = 0.409756
    Cl    = 0.0645785
    Cl(f) = 0.189781
    Cl(r) = -0.125203

Time = 69s

smoothSolver:  Solving for Ux, Initial residual = 0.00046079, Final residual = 4.50436e-05, No Iterations 7
smoothSolver:  Solving for Uy, Initial residual = 0.00962134, Final residual = 0.000734407, No Iterations 7
smoothSolver:  Solving for Uz, Initial residual = 0.00931213, Final residual = 0.000717674, No Iterations 7
diagonalPCG:  Solving for p, Initial residual = 0.0042415, Final residual = 4.16212e-05, No Iterations 73
time step continuity errors : sum local = 7.91263e-05, global = 1.71527e-06, cumulative = 0.000870278
smoothSolver:  Solving for omega, Initial residual = 7.18506e-05, Final residual = 5.00395e-06, No Iterations 2
smoothSolver:  Solving for k, Initial residual = 0.0010389, Final residual = 8.16183e-05, No Iterations 2
ExecutionTime = 98.2105 s  ClockTime = 98 s

forceCoeffs forceCoeffs1 write:
    Cm    = 0.157797
    Cd    = 0.410305
    Cl    = 0.0641875
    Cl(f) = 0.189891
    Cl(r) = -0.125704

Time = 70s

smoothSolver:  Solving for Ux, Initial residual = 0.000453778, Final residual = 4.37329e-05, No Iterations 7
smoothSolver:  Solving for Uy, Initial residual = 0.00941012, Final residual = 0.000717259, No Iterations 7
smoothSolver:  Solving for Uz, Initial residual = 0.00906257, Final residual = 0.000689246, No Iterations 7
diagonalPCG:  Solving for p, Initial residual = 0.00414434, Final residual = 4.07315e-05, No Iterations 73
time step continuity errors : sum local = 7.74972e-05, global = 2.32259e-06, cumulative = 0.0008726
smoothSolver:  Solving for omega, Initial residual = 7.04568e-05, Final residual = 4.90462e-06, No Iterations 2
smoothSolver:  Solving for k, Initial residual = 0.0010091, Final residual = 7.94363e-05, No Iterations 2
ExecutionTime = 99.5327 s  ClockTime = 99 s

forceCoeffs forceCoeffs1 write:
    Cm    = 0.158045
    Cd    = 0.410811
    Cl    = 0.0639676
    Cl(f) = 0.190029
    Cl(r) = -0.126061

Time = 71s

smoothSolver:  Solving for Ux, Initial residual = 0.000442108, Final residual = 4.18195e-05, No Iterations 7
smoothSolver:  Solving for Uy, Initial residual = 0.00920614, Final residual = 0.000691091, No Iterations 7
smoothSolver:  Solving for Uz, Initial residual = 0.00878486, Final residual = 0.000657231, No Iterations 7
diagonalPCG:  Solving for p, Initial residual = 0.00405881, Final residual = 3.99858e-05, No Iterations 72
time step continuity errors : sum local = 7.61479e-05, global = 1.37659e-06, cumulative = 0.000873977
smoothSolver:  Solving for omega, Initial residual = 6.8975e-05, Final residual = 4.79954e-06, No Iterations 2
smoothSolver:  Solving for k, Initial residual = 0.000981527, Final residual = 7.73623e-05, No Iterations 2
ExecutionTime = 100.838 s  ClockTime = 101 s

forceCoeffs forceCoeffs1 write:
    Cm    = 0.158158
    Cd    = 0.411109
    Cl    = 0.0639047
    Cl(f) = 0.190111
    Cl(r) = -0.126206

Time = 72s

smoothSolver:  Solving for Ux, Initial residual = 0.000426858, Final residual = 3.93423e-05, No Iterations 7
smoothSolver:  Solving for Uy, Initial residual = 0.00895487, Final residual = 0.000890316, No Iterations 6
smoothSolver:  Solving for Uz, Initial residual = 0.00848395, Final residual = 0.000843675, No Iterations 6
diagonalPCG:  Solving for p, Initial residual = 0.00395855, Final residual = 3.91996e-05, No Iterations 68
time step continuity errors : sum local = 7.46982e-05, global = -4.29786e-07, cumulative = 0.000873547
smoothSolver:  Solving for omega, Initial residual = 6.70998e-05, Final residual = 4.67684e-06, No Iterations 2
smoothSolver:  Solving for k, Initial residual = 0.000955314, Final residual = 7.54439e-05, No Iterations 2
ExecutionTime = 102.122 s  ClockTime = 102 s

forceCoeffs forceCoeffs1 write:
    Cm    = 0.158136
    Cd    = 0.41132
    Cl    = 0.0640581
    Cl(f) = 0.190165
    Cl(r) = -0.126107

Time = 73s

smoothSolver:  Solving for Ux, Initial residual = 0.000406882, Final residual = 3.63199e-05, No Iterations 7
smoothSolver:  Solving for Uy, Initial residual = 0.00866498, Final residual = 0.000837959, No Iterations 6
smoothSolver:  Solving for Uz, Initial residual = 0.00815161, Final residual = 0.000797762, No Iterations 6
diagonalPCG:  Solving for p, Initial residual = 0.00388977, Final residual = 3.88053e-05, No Iterations 66
time step continuity errors : sum local = 7.39934e-05, global = -2.26786e-06, cumulative = 0.000871279
smoothSolver:  Solving for omega, Initial residual = 6.50492e-05, Final residual = 4.55656e-06, No Iterations 2
smoothSolver:  Solving for k, Initial residual = 0.000929159, Final residual = 7.36698e-05, No Iterations 2
ExecutionTime = 103.397 s  ClockTime = 103 s

forceCoeffs forceCoeffs1 write:
    Cm    = 0.158024
    Cd    = 0.411358
    Cl    = 0.0644159
    Cl(f) = 0.190232
    Cl(r) = -0.125816

Time = 74s

smoothSolver:  Solving for Ux, Initial residual = 0.000387381, Final residual = 3.34034e-05, No Iterations 7
smoothSolver:  Solving for Uy, Initial residual = 0.00834785, Final residual = 0.000786226, No Iterations 6
smoothSolver:  Solving for Uz, Initial residual = 0.00783735, Final residual = 0.00075095, No Iterations 6
diagonalPCG:  Solving for p, Initial residual = 0.00380173, Final residual = 3.70353e-05, No Iterations 66
time step continuity errors : sum local = 7.06408e-05, global = -4.25496e-06, cumulative = 0.000867024
smoothSolver:  Solving for omega, Initial residual = 6.32758e-05, Final residual = 4.43452e-06, No Iterations 2
smoothSolver:  Solving for k, Initial residual = 0.000903211, Final residual = 7.18604e-05, No Iterations 2
ExecutionTime = 104.658 s  ClockTime = 104 s

forceCoeffs forceCoeffs1 write:
    Cm    = 0.157899
    Cd    = 0.41141
    Cl    = 0.0649492
    Cl(f) = 0.190373
    Cl(r) = -0.125424

Time = 75s

smoothSolver:  Solving for Ux, Initial residual = 0.000367878, Final residual = 3.11498e-05, No Iterations 7
smoothSolver:  Solving for Uy, Initial residual = 0.00800017, Final residual = 0.000729827, No Iterations 6
smoothSolver:  Solving for Uz, Initial residual = 0.00756557, Final residual = 0.000704577, No Iterations 6
diagonalPCG:  Solving for p, Initial residual = 0.00371798, Final residual = 3.68109e-05, No Iterations 66
time step continuity errors : sum local = 7.02235e-05, global = -6.04123e-06, cumulative = 0.000860983
smoothSolver:  Solving for omega, Initial residual = 6.15969e-05, Final residual = 4.3123e-06, No Iterations 2
smoothSolver:  Solving for k, Initial residual = 0.000880395, Final residual = 7.00881e-05, No Iterations 2
ExecutionTime = 105.934 s  ClockTime = 106 s

forceCoeffs forceCoeffs1 write:
    Cm    = 0.157795
    Cd    = 0.411505
    Cl    = 0.0654079
    Cl(f) = 0.190499
    Cl(r) = -0.125091

Time = 76s

smoothSolver:  Solving for Ux, Initial residual = 0.00035193, Final residual = 2.97175e-05, No Iterations 7
smoothSolver:  Solving for Uy, Initial residual = 0.00769121, Final residual = 0.000688466, No Iterations 6
smoothSolver:  Solving for Uz, Initial residual = 0.00734433, Final residual = 0.000664078, No Iterations 6
diagonalPCG:  Solving for p, Initial residual = 0.00363359, Final residual = 3.57758e-05, No Iterations 69
time step continuity errors : sum local = 6.82448e-05, global = -7.30462e-06, cumulative = 0.000853678
smoothSolver:  Solving for omega, Initial residual = 5.99579e-05, Final residual = 4.19145e-06, No Iterations 2
smoothSolver:  Solving for k, Initial residual = 0.000860708, Final residual = 6.84753e-05, No Iterations 2
ExecutionTime = 107.225 s  ClockTime = 107 s

forceCoeffs forceCoeffs1 write:
    Cm    = 0.157805
    Cd    = 0.411802
    Cl    = 0.0658782
    Cl(f) = 0.190744
    Cl(r) = -0.124866

Time = 77s

smoothSolver:  Solving for Ux, Initial residual = 0.000339176, Final residual = 2.86131e-05, No Iterations 7
smoothSolver:  Solving for Uy, Initial residual = 0.00748805, Final residual = 0.000664752, No Iterations 6
smoothSolver:  Solving for Uz, Initial residual = 0.00717845, Final residual = 0.000634622, No Iterations 6
diagonalPCG:  Solving for p, Initial residual = 0.00355013, Final residual = 3.52712e-05, No Iterations 69
time step continuity errors : sum local = 6.72719e-05, global = -8.46665e-06, cumulative = 0.000845212
smoothSolver:  Solving for omega, Initial residual = 5.83936e-05, Final residual = 4.08986e-06, No Iterations 2
smoothSolver:  Solving for k, Initial residual = 0.000841656, Final residual = 6.71143e-05, No Iterations 2
ExecutionTime = 108.506 s  ClockTime = 108 s

forceCoeffs forceCoeffs1 write:
    Cm    = 0.157858
    Cd    = 0.412137
    Cl    = 0.0662681
    Cl(f) = 0.190992
    Cl(r) = -0.124724

Time = 78s

smoothSolver:  Solving for Ux, Initial residual = 0.000327843, Final residual = 2.7481e-05, No Iterations 7
smoothSolver:  Solving for Uy, Initial residual = 0.00729961, Final residual = 0.00064684, No Iterations 6
smoothSolver:  Solving for Uz, Initial residual = 0.00701793, Final residual = 0.00061545, No Iterations 6
diagonalPCG:  Solving for p, Initial residual = 0.00346567, Final residual = 3.43782e-05, No Iterations 67
time step continuity errors : sum local = 6.55526e-05, global = -9.66043e-06, cumulative = 0.000835551
smoothSolver:  Solving for omega, Initial residual = 5.7067e-05, Final residual = 4.00165e-06, No Iterations 2
smoothSolver:  Solving for k, Initial residual = 0.000823415, Final residual = 6.58432e-05, No Iterations 2
ExecutionTime = 109.784 s  ClockTime = 110 s

forceCoeffs forceCoeffs1 write:
    Cm    = 0.157947
    Cd    = 0.412506
    Cl    = 0.0667245
    Cl(f) = 0.191309
    Cl(r) = -0.124584

Time = 79s

smoothSolver:  Solving for Ux, Initial residual = 0.00031837, Final residual = 2.66344e-05, No Iterations 7
smoothSolver:  Solving for Uy, Initial residual = 0.00712799, Final residual = 0.000631974, No Iterations 6
smoothSolver:  Solving for Uz, Initial residual = 0.00683141, Final residual = 0.000601559, No Iterations 6
diagonalPCG:  Solving for p, Initial residual = 0.00339629, Final residual = 3.35451e-05, No Iterations 62
time step continuity errors : sum local = 6.39517e-05, global = -1.10592e-05, cumulative = 0.000824492
smoothSolver:  Solving for omega, Initial residual = 5.59379e-05, Final residual = 3.91301e-06, No Iterations 2
smoothSolver:  Solving for k, Initial residual = 0.000805813, Final residual = 6.45177e-05, No Iterations 2
ExecutionTime = 111.041 s  ClockTime = 111 s

forceCoeffs forceCoeffs1 write:
    Cm    = 0.157994
    Cd    = 0.412781
    Cl    = 0.0672262
    Cl(f) = 0.191607
    Cl(r) = -0.124381

Time = 80s

smoothSolver:  Solving for Ux, Initial residual = 0.000310081, Final residual = 2.60264e-05, No Iterations 7
smoothSolver:  Solving for Uy, Initial residual = 0.00700412, Final residual = 0.000623836, No Iterations 6
smoothSolver:  Solving for Uz, Initial residual = 0.00665639, Final residual = 0.000589379, No Iterations 6
diagonalPCG:  Solving for p, Initial residual = 0.0033343, Final residual = 3.2726e-05, No Iterations 61
time step continuity errors : sum local = 6.23742e-05, global = -1.16326e-05, cumulative = 0.000812859
smoothSolver:  Solving for omega, Initial residual = 5.48339e-05, Final residual = 3.83176e-06, No Iterations 2
smoothSolver:  Solving for k, Initial residual = 0.000789192, Final residual = 6.32594e-05, No Iterations 2
ExecutionTime = 112.275 s  ClockTime = 112 s

forceCoeffs forceCoeffs1 write:
    Cm    = 0.158028
    Cd    = 0.412991
    Cl    = 0.0677877
    Cl(f) = 0.191922
    Cl(r) = -0.124134

Time = 81s

smoothSolver:  Solving for Ux, Initial residual = 0.000302211, Final residual = 2.54048e-05, No Iterations 7
smoothSolver:  Solving for Uy, Initial residual = 0.00691399, Final residual = 0.000623786, No Iterations 6
smoothSolver:  Solving for Uz, Initial residual = 0.00652345, Final residual = 0.000578469, No Iterations 6
diagonalPCG:  Solving for p, Initial residual = 0.00328115, Final residual = 3.25956e-05, No Iterations 58
time step continuity errors : sum local = 6.21125e-05, global = -1.18377e-05, cumulative = 0.000801022
smoothSolver:  Solving for omega, Initial residual = 5.3634e-05, Final residual = 3.75725e-06, No Iterations 2
smoothSolver:  Solving for k, Initial residual = 0.00077236, Final residual = 6.20122e-05, No Iterations 2
ExecutionTime = 113.479 s  ClockTime = 113 s

forceCoeffs forceCoeffs1 write:
    Cm    = 0.158032
    Cd    = 0.413106
    Cl    = 0.0682803
    Cl(f) = 0.192172
    Cl(r) = -0.123892

Time = 82s

smoothSolver:  Solving for Ux, Initial residual = 0.000295123, Final residual = 2.46818e-05, No Iterations 7
smoothSolver:  Solving for Uy, Initial residual = 0.0068067, Final residual = 0.000621322, No Iterations 6
smoothSolver:  Solving for Uz, Initial residual = 0.00639343, Final residual = 0.000571167, No Iterations 6
diagonalPCG:  Solving for p, Initial residual = 0.00322059, Final residual = 3.19355e-05, No Iterations 56
time step continuity errors : sum local = 6.08399e-05, global = -1.14588e-05, cumulative = 0.000789563
smoothSolver:  Solving for omega, Initial residual = 5.25561e-05, Final residual = 3.68516e-06, No Iterations 2
smoothSolver:  Solving for k, Initial residual = 0.00075563, Final residual = 6.06943e-05, No Iterations 2
ExecutionTime = 114.701 s  ClockTime = 114 s

forceCoeffs forceCoeffs1 write:
    Cm    = 0.158101
    Cd    = 0.413265
    Cl    = 0.0687048
    Cl(f) = 0.192453
    Cl(r) = -0.123748

Time = 83s

[...]
smoothSolver:  Solving for Uy, Initial residual = 0.00377008, Final residual = 0.000277839, No Iterations 7
smoothSolver:  Solving for Uz, Initial residual = 0.00360352, Final residual = 0.000273201, No Iterations 7
diagonalPCG:  Solving for p, Initial residual = 0.00165731, Final residual = 1.64866e-05, No Iterations 67
time step continuity errors : sum local = 3.10839e-05, global = 5.58815e-06, cumulative = 0.000599645
smoothSolver:  Solving for omega, Initial residual = 1.80375e-05, Final residual = 9.8834e-07, No Iterations 2
smoothSolver:  Solving for k, Initial residual = 0.000139384, Final residual = 8.62926e-06, No Iterations 2
ExecutionTime = 640.214 s  ClockTime = 641 s

forceCoeffs forceCoeffs1 write:
    Cm    = 0.158123
    Cd    = 0.413065
    Cl    = 0.0704537
    Cl(f) = 0.193349
    Cl(r) = -0.122896

Time = 481s

smoothSolver:  Solving for Ux, Initial residual = 0.000165053, Final residual = 1.51522e-05, No Iterations 7
smoothSolver:  Solving for Uy, Initial residual = 0.00366251, Final residual = 0.000363151, No Iterations 6
smoothSolver:  Solving for Uz, Initial residual = 0.00352567, Final residual = 0.000264366, No Iterations 7
diagonalPCG:  Solving for p, Initial residual = 0.00164253, Final residual = 1.62754e-05, No Iterations 53
time step continuity errors : sum local = 3.06871e-05, global = 8.03014e-06, cumulative = 0.000607675
smoothSolver:  Solving for omega, Initial residual = 1.77097e-05, Final residual = 9.67691e-07, No Iterations 2
smoothSolver:  Solving for k, Initial residual = 0.000135702, Final residual = 8.44107e-06, No Iterations 2
ExecutionTime = 641.417 s  ClockTime = 642 s

forceCoeffs forceCoeffs1 write:
    Cm    = 0.158115
    Cd    = 0.412897
    Cl    = 0.0704515
    Cl(f) = 0.19334
    Cl(r) = -0.122889

Time = 482s

smoothSolver:  Solving for Ux, Initial residual = 0.000161292, Final residual = 1.45884e-05, No Iterations 7
smoothSolver:  Solving for Uy, Initial residual = 0.00359265, Final residual = 0.000350557, No Iterations 6
smoothSolver:  Solving for Uz, Initial residual = 0.0034535, Final residual = 0.000255117, No Iterations 7
diagonalPCG:  Solving for p, Initial residual = 0.00162931, Final residual = 1.62891e-05, No Iterations 70
time step continuity errors : sum local = 3.0714e-05, global = 7.88049e-06, cumulative = 0.000615556
smoothSolver:  Solving for omega, Initial residual = 1.76209e-05, Final residual = 9.55556e-07, No Iterations 2
smoothSolver:  Solving for k, Initial residual = 0.000132363, Final residual = 8.23308e-06, No Iterations 2
ExecutionTime = 642.712 s  ClockTime = 643 s

forceCoeffs forceCoeffs1 write:
    Cm    = 0.158088
    Cd    = 0.412779
    Cl    = 0.0705284
    Cl(f) = 0.193352
    Cl(r) = -0.122824

Time = 483s

smoothSolver:  Solving for Ux, Initial residual = 0.000159381, Final residual = 1.42808e-05, No Iterations 7
smoothSolver:  Solving for Uy, Initial residual = 0.00359285, Final residual = 0.000346895, No Iterations 6
smoothSolver:  Solving for Uz, Initial residual = 0.00341929, Final residual = 0.000341018, No Iterations 6
diagonalPCG:  Solving for p, Initial residual = 0.0016229, Final residual = 1.61368e-05, No Iterations 73
time step continuity errors : sum local = 3.0436e-05, global = 6.26447e-06, cumulative = 0.00062182
smoothSolver:  Solving for omega, Initial residual = 1.75497e-05, Final residual = 9.47809e-07, No Iterations 2
smoothSolver:  Solving for k, Initial residual = 0.000129548, Final residual = 8.08959e-06, No Iterations 2
ExecutionTime = 644.016 s  ClockTime = 644 s

forceCoeffs forceCoeffs1 write:
    Cm    = 0.158084
    Cd    = 0.412668
    Cl    = 0.0705013
    Cl(f) = 0.193335
    Cl(r) = -0.122834

Time = 484s

smoothSolver:  Solving for Ux, Initial residual = 0.000156319, Final residual = 1.39009e-05, No Iterations 7
smoothSolver:  Solving for Uy, Initial residual = 0.00356693, Final residual = 0.000339551, No Iterations 6
smoothSolver:  Solving for Uz, Initial residual = 0.00339117, Final residual = 0.000335468, No Iterations 6
diagonalPCG:  Solving for p, Initial residual = 0.00161682, Final residual = 1.56016e-05, No Iterations 76
time step continuity errors : sum local = 2.9433e-05, global = 3.37125e-06, cumulative = 0.000625192
smoothSolver:  Solving for omega, Initial residual = 1.76897e-05, Final residual = 9.48782e-07, No Iterations 2
smoothSolver:  Solving for k, Initial residual = 0.000127755, Final residual = 7.99813e-06, No Iterations 2
ExecutionTime = 645.329 s  ClockTime = 646 s

forceCoeffs forceCoeffs1 write:
    Cm    = 0.158054
    Cd    = 0.412606
    Cl    = 0.0705014
    Cl(f) = 0.193305
    Cl(r) = -0.122804

Time = 485s

smoothSolver:  Solving for Ux, Initial residual = 0.000154632, Final residual = 1.37435e-05, No Iterations 7
smoothSolver:  Solving for Uy, Initial residual = 0.00356662, Final residual = 0.000340932, No Iterations 6
smoothSolver:  Solving for Uz, Initial residual = 0.00340184, Final residual = 0.000331962, No Iterations 6
diagonalPCG:  Solving for p, Initial residual = 0.00161891, Final residual = 1.60226e-05, No Iterations 79
time step continuity errors : sum local = 3.02317e-05, global = 1.44331e-07, cumulative = 0.000625336
smoothSolver:  Solving for omega, Initial residual = 1.77295e-05, Final residual = 9.55369e-07, No Iterations 2
smoothSolver:  Solving for k, Initial residual = 0.000126352, Final residual = 7.9636e-06, No Iterations 2
ExecutionTime = 646.648 s  ClockTime = 647 s

forceCoeffs forceCoeffs1 write:
    Cm    = 0.158009
    Cd    = 0.412494
    Cl    = 0.0705058
    Cl(f) = 0.193262
    Cl(r) = -0.122756

Time = 486s

smoothSolver:  Solving for Ux, Initial residual = 0.000152874, Final residual = 1.36368e-05, No Iterations 7
smoothSolver:  Solving for Uy, Initial residual = 0.00360308, Final residual = 0.000349732, No Iterations 6
smoothSolver:  Solving for Uz, Initial residual = 0.0034138, Final residual = 0.000330131, No Iterations 6
diagonalPCG:  Solving for p, Initial residual = 0.0016321, Final residual = 1.59769e-05, No Iterations 90
time step continuity errors : sum local = 3.01449e-05, global = -3.1467e-06, cumulative = 0.000622189
smoothSolver:  Solving for omega, Initial residual = 1.80666e-05, Final residual = 9.71604e-07, No Iterations 2
smoothSolver:  Solving for k, Initial residual = 0.000126062, Final residual = 7.96948e-06, No Iterations 2
ExecutionTime = 648.018 s  ClockTime = 648 s

forceCoeffs forceCoeffs1 write:
    Cm    = 0.157986
    Cd    = 0.412479
    Cl    = 0.0705796
    Cl(f) = 0.193275
    Cl(r) = -0.122696

Time = 487s

smoothSolver:  Solving for Ux, Initial residual = 0.000152353, Final residual = 1.36338e-05, No Iterations 7
smoothSolver:  Solving for Uy, Initial residual = 0.00366728, Final residual = 0.000361361, No Iterations 6
smoothSolver:  Solving for Uz, Initial residual = 0.00343042, Final residual = 0.000331432, No Iterations 6
diagonalPCG:  Solving for p, Initial residual = 0.00165209, Final residual = 1.61845e-05, No Iterations 93
time step continuity errors : sum local = 3.05251e-05, global = -3.89289e-06, cumulative = 0.000618296
smoothSolver:  Solving for omega, Initial residual = 1.8516e-05, Final residual = 1.00352e-06, No Iterations 2
smoothSolver:  Solving for k, Initial residual = 0.00012656, Final residual = 8.01981e-06, No Iterations 2
ExecutionTime = 649.427 s  ClockTime = 650 s

forceCoeffs forceCoeffs1 write:
    Cm    = 0.158002
    Cd    = 0.412529
    Cl    = 0.0705491
    Cl(f) = 0.193276
    Cl(r) = -0.122727

Time = 488s

smoothSolver:  Solving for Ux, Initial residual = 0.000153162, Final residual = 1.37167e-05, No Iterations 7
smoothSolver:  Solving for Uy, Initial residual = 0.00374219, Final residual = 0.000371673, No Iterations 6
smoothSolver:  Solving for Uz, Initial residual = 0.00345072, Final residual = 0.000335337, No Iterations 6
diagonalPCG:  Solving for p, Initial residual = 0.00167206, Final residual = 1.63538e-05, No Iterations 90
time step continuity errors : sum local = 3.08272e-05, global = -3.837e-06, cumulative = 0.000614459
smoothSolver:  Solving for omega, Initial residual = 1.88869e-05, Final residual = 1.0382e-06, No Iterations 2
smoothSolver:  Solving for k, Initial residual = 0.000127767, Final residual = 8.09698e-06, No Iterations 2
ExecutionTime = 650.837 s  ClockTime = 651 s

forceCoeffs forceCoeffs1 write:
    Cm    = 0.158
    Cd    = 0.412573
    Cl    = 0.0705377
    Cl(f) = 0.193269
    Cl(r) = -0.122731

Time = 489s

smoothSolver:  Solving for Ux, Initial residual = 0.000154679, Final residual = 1.36946e-05, No Iterations 7
smoothSolver:  Solving for Uy, Initial residual = 0.00377624, Final residual = 0.000374254, No Iterations 6
smoothSolver:  Solving for Uz, Initial residual = 0.00345411, Final residual = 0.000334226, No Iterations 6
diagonalPCG:  Solving for p, Initial residual = 0.00169317, Final residual = 1.66699e-05, No Iterations 83
time step continuity errors : sum local = 3.14094e-05, global = -3.38475e-06, cumulative = 0.000611075
smoothSolver:  Solving for omega, Initial residual = 1.90969e-05, Final residual = 1.057e-06, No Iterations 2
smoothSolver:  Solving for k, Initial residual = 0.000128505, Final residual = 8.12308e-06, No Iterations 2
ExecutionTime = 652.187 s  ClockTime = 653 s

forceCoeffs forceCoeffs1 write:
    Cm    = 0.157938
    Cd    = 0.412489
    Cl    = 0.0704343
    Cl(f) = 0.193155
    Cl(r) = -0.122721

Time = 490s

smoothSolver:  Solving for Ux, Initial residual = 0.000155849, Final residual = 1.35946e-05, No Iterations 7
smoothSolver:  Solving for Uy, Initial residual = 0.00378844, Final residual = 0.000370545, No Iterations 6
smoothSolver:  Solving for Uz, Initial residual = 0.00345406, Final residual = 0.000332396, No Iterations 6
diagonalPCG:  Solving for p, Initial residual = 0.00171302, Final residual = 1.68629e-05, No Iterations 82
time step continuity errors : sum local = 3.17669e-05, global = -2.46368e-06, cumulative = 0.000608611
smoothSolver:  Solving for omega, Initial residual = 1.91259e-05, Final residual = 1.05957e-06, No Iterations 2
smoothSolver:  Solving for k, Initial residual = 0.000129098, Final residual = 8.0968e-06, No Iterations 2
ExecutionTime = 653.507 s  ClockTime = 654 s

forceCoeffs forceCoeffs1 write:
    Cm    = 0.157841
    Cd    = 0.412337
    Cl    = 0.0703632
    Cl(f) = 0.193022
    Cl(r) = -0.122659

Time = 491s

smoothSolver:  Solving for Ux, Initial residual = 0.00015686, Final residual = 1.34816e-05, No Iterations 7
smoothSolver:  Solving for Uy, Initial residual = 0.00376951, Final residual = 0.000365607, No Iterations 6
smoothSolver:  Solving for Uz, Initial residual = 0.00344452, Final residual = 0.000329473, No Iterations 6
diagonalPCG:  Solving for p, Initial residual = 0.00172548, Final residual = 1.71584e-05, No Iterations 75
time step continuity errors : sum local = 3.23258e-05, global = -1.88121e-06, cumulative = 0.00060673
smoothSolver:  Solving for omega, Initial residual = 1.91271e-05, Final residual = 1.05558e-06, No Iterations 2
smoothSolver:  Solving for k, Initial residual = 0.000129477, Final residual = 8.0707e-06, No Iterations 2
ExecutionTime = 654.8 s  ClockTime = 655 s

forceCoeffs forceCoeffs1 write:
    Cm    = 0.15777
    Cd    = 0.412235
    Cl    = 0.0702446
    Cl(f) = 0.192892
    Cl(r) = -0.122647

Time = 492s

smoothSolver:  Solving for Ux, Initial residual = 0.00015692, Final residual = 1.33088e-05, No Iterations 7
smoothSolver:  Solving for Uy, Initial residual = 0.00376804, Final residual = 0.000361862, No Iterations 6
smoothSolver:  Solving for Uz, Initial residual = 0.00341932, Final residual = 0.000325905, No Iterations 6
diagonalPCG:  Solving for p, Initial residual = 0.00173798, Final residual = 1.71866e-05, No Iterations 65
time step continuity errors : sum local = 3.23861e-05, global = -2.02436e-06, cumulative = 0.000604705
smoothSolver:  Solving for omega, Initial residual = 1.90711e-05, Final residual = 1.04852e-06, No Iterations 2
smoothSolver:  Solving for k, Initial residual = 0.000130566, Final residual = 8.09799e-06, No Iterations 2
ExecutionTime = 656.056 s  ClockTime = 657 s

forceCoeffs forceCoeffs1 write:
    Cm    = 0.157728
    Cd    = 0.41221
    Cl    = 0.0701381
    Cl(f) = 0.192797
    Cl(r) = -0.122659

Time = 493s

smoothSolver:  Solving for Ux, Initial residual = 0.000156105, Final residual = 1.31599e-05, No Iterations 7
smoothSolver:  Solving for Uy, Initial residual = 0.00377252, Final residual = 0.000359077, No Iterations 6
smoothSolver:  Solving for Uz, Initial residual = 0.00339259, Final residual = 0.000322235, No Iterations 6
diagonalPCG:  Solving for p, Initial residual = 0.00174695, Final residual = 1.73086e-05, No Iterations 58
time step continuity errors : sum local = 3.26236e-05, global = -2.22327e-06, cumulative = 0.000602482
smoothSolver:  Solving for omega, Initial residual = 1.90086e-05, Final residual = 1.04721e-06, No Iterations 2
smoothSolver:  Solving for k, Initial residual = 0.000131887, Final residual = 8.15115e-06, No Iterations 2
ExecutionTime = 657.274 s  ClockTime = 658 s

forceCoeffs forceCoeffs1 write:
    Cm    = 0.157711
    Cd    = 0.412228
    Cl    = 0.0700435
    Cl(f) = 0.192733
    Cl(r) = -0.12269

Time = 494s

smoothSolver:  Solving for Ux, Initial residual = 0.000155495, Final residual = 1.30933e-05, No Iterations 7
smoothSolver:  Solving for Uy, Initial residual = 0.00377621, Final residual = 0.000358005, No Iterations 6
smoothSolver:  Solving for Uz, Initial residual = 0.00336946, Final residual = 0.000319958, No Iterations 6
diagonalPCG:  Solving for p, Initial residual = 0.00175424, Final residual = 1.73464e-05, No Iterations 62
time step continuity errors : sum local = 3.2702e-05, global = -2.11631e-06, cumulative = 0.000600366
smoothSolver:  Solving for omega, Initial residual = 1.90742e-05, Final residual = 1.04478e-06, No Iterations 2
smoothSolver:  Solving for k, Initial residual = 0.000132811, Final residual = 8.19962e-06, No Iterations 2
ExecutionTime = 658.519 s  ClockTime = 659 s

forceCoeffs forceCoeffs1 write:
    Cm    = 0.157674
    Cd    = 0.412224
    Cl    = 0.070024
    Cl(f) = 0.192686
    Cl(r) = -0.122662

Time = 495s

smoothSolver:  Solving for Ux, Initial residual = 0.000155189, Final residual = 1.3192e-05, No Iterations 7
smoothSolver:  Solving for Uy, Initial residual = 0.00377647, Final residual = 0.000359044, No Iterations 6
smoothSolver:  Solving for Uz, Initial residual = 0.00337449, Final residual = 0.000321236, No Iterations 6
diagonalPCG:  Solving for p, Initial residual = 0.0017642, Final residual = 1.74975e-05, No Iterations 82
time step continuity errors : sum local = 3.29938e-05, global = -1.66494e-06, cumulative = 0.000598701
smoothSolver:  Solving for omega, Initial residual = 1.90988e-05, Final residual = 1.04169e-06, No Iterations 2
smoothSolver:  Solving for k, Initial residual = 0.000133423, Final residual = 8.23881e-06, No Iterations 2
ExecutionTime = 659.868 s  ClockTime = 660 s

forceCoeffs forceCoeffs1 write:
    Cm    = 0.157654
    Cd    = 0.412261
    Cl    = 0.0698603
    Cl(f) = 0.192584
    Cl(r) = -0.122724

Time = 496s

smoothSolver:  Solving for Ux, Initial residual = 0.000156147, Final residual = 1.34743e-05, No Iterations 7
smoothSolver:  Solving for Uy, Initial residual = 0.00379007, Final residual = 0.000362781, No Iterations 6
smoothSolver:  Solving for Uz, Initial residual = 0.00340636, Final residual = 0.000325962, No Iterations 6
diagonalPCG:  Solving for p, Initial residual = 0.00177243, Final residual = 1.76065e-05, No Iterations 47
time step continuity errors : sum local = 3.31981e-05, global = -2.30384e-06, cumulative = 0.000596397
smoothSolver:  Solving for omega, Initial residual = 1.91134e-05, Final residual = 1.03672e-06, No Iterations 2
smoothSolver:  Solving for k, Initial residual = 0.000133594, Final residual = 8.27926e-06, No Iterations 2
ExecutionTime = 661.056 s  ClockTime = 662 s

forceCoeffs forceCoeffs1 write:
    Cm    = 0.157543
    Cd    = 0.412166
    Cl    = 0.0698924
    Cl(f) = 0.19249
    Cl(r) = -0.122597

Time = 497s

smoothSolver:  Solving for Ux, Initial residual = 0.000154201, Final residual = 1.35241e-05, No Iterations 7
smoothSolver:  Solving for Uy, Initial residual = 0.00374779, Final residual = 0.0003557, No Iterations 6
smoothSolver:  Solving for Uz, Initial residual = 0.00338488, Final residual = 0.000324563, No Iterations 6
diagonalPCG:  Solving for p, Initial residual = 0.00177101, Final residual = 1.75631e-05, No Iterations 61
time step continuity errors : sum local = 3.31174e-05, global = -2.62243e-06, cumulative = 0.000593775
smoothSolver:  Solving for omega, Initial residual = 1.89401e-05, Final residual = 1.02863e-06, No Iterations 2
smoothSolver:  Solving for k, Initial residual = 0.000133607, Final residual = 8.31788e-06, No Iterations 2
ExecutionTime = 662.269 s  ClockTime = 663 s

forceCoeffs forceCoeffs1 write:
    Cm    = 0.157459
    Cd    = 0.412162
    Cl    = 0.0698336
    Cl(f) = 0.192375
    Cl(r) = -0.122542

Time = 498s

smoothSolver:  Solving for Ux, Initial residual = 0.000155236, Final residual = 1.38332e-05, No Iterations 7
smoothSolver:  Solving for Uy, Initial residual = 0.0037974, Final residual = 0.000362402, No Iterations 6
smoothSolver:  Solving for Uz, Initial residual = 0.00340742, Final residual = 0.000328252, No Iterations 6
diagonalPCG:  Solving for p, Initial residual = 0.00176925, Final residual = 1.70314e-05, No Iterations 59
time step continuity errors : sum local = 3.21194e-05, global = -2.40741e-06, cumulative = 0.000591367
smoothSolver:  Solving for omega, Initial residual = 1.87751e-05, Final residual = 1.01995e-06, No Iterations 2
smoothSolver:  Solving for k, Initial residual = 0.000133375, Final residual = 8.38012e-06, No Iterations 2
ExecutionTime = 663.499 s  ClockTime = 664 s

forceCoeffs forceCoeffs1 write:
    Cm    = 0.157407
    Cd    = 0.412249
    Cl    = 0.0697561
    Cl(f) = 0.192285
    Cl(r) = -0.122529

Time = 499s

smoothSolver:  Solving for Ux, Initial residual = 0.000155812, Final residual = 1.40025e-05, No Iterations 7
smoothSolver:  Solving for Uy, Initial residual = 0.00376997, Final residual = 0.000357373, No Iterations 6
smoothSolver:  Solving for Uz, Initial residual = 0.00342025, Final residual = 0.000330826, No Iterations 6
diagonalPCG:  Solving for p, Initial residual = 0.00176004, Final residual = 1.69826e-05, No Iterations 61
time step continuity errors : sum local = 3.20306e-05, global = -1.65479e-06, cumulative = 0.000589712
smoothSolver:  Solving for omega, Initial residual = 1.87097e-05, Final residual = 1.02382e-06, No Iterations 2
smoothSolver:  Solving for k, Initial residual = 0.000132997, Final residual = 8.46964e-06, No Iterations 2
ExecutionTime = 664.731 s  ClockTime = 665 s

forceCoeffs forceCoeffs1 write:
    Cm    = 0.157384
    Cd    = 0.412398
    Cl    = 0.069651
    Cl(f) = 0.19221
    Cl(r) = -0.122559

Time = 500s

smoothSolver:  Solving for Ux, Initial residual = 0.000157435, Final residual = 1.42852e-05, No Iterations 7
smoothSolver:  Solving for Uy, Initial residual = 0.0037682, Final residual = 0.000358563, No Iterations 6
smoothSolver:  Solving for Uz, Initial residual = 0.00342987, Final residual = 0.000333323, No Iterations 6
diagonalPCG:  Solving for p, Initial residual = 0.00175459, Final residual = 1.75376e-05, No Iterations 75
time step continuity errors : sum local = 3.30796e-05, global = 9.26279e-07, cumulative = 0.000590639
smoothSolver:  Solving for omega, Initial residual = 1.86237e-05, Final residual = 1.02362e-06, No Iterations 2
smoothSolver:  Solving for k, Initial residual = 0.000133209, Final residual = 8.574e-06, No Iterations 2
ExecutionTime = 666.051 s  ClockTime = 667 s

streamlines streamlines write:
    Seeded 20 particles
    Sampled 18155 locations
forceCoeffs forceCoeffs1 write:
    Cm    = 0.157392
    Cd    = 0.412598
    Cl    = 0.0696171
    Cl(f) = 0.192201
    Cl(r) = -0.122584

End

