
simpleFoam has been superseded and replaced by the more general
incompressibleFluid solver module executed by the foamRun application:

    foamRun -solver incompressibleFluid

/*---------------------------------------------------------------------------*\
  =========                 |
  \\      /  F ield         | OpenFOAM: The Open Source CFD Toolbox
   \\    /   O peration     | Website:  https://openfoam.org
    \\  /    A nd           | Version:  dev
     \\/     M anipulation  |
\*---------------------------------------------------------------------------*/
Build  : dev-c8cf725d25ac
Exec   : foamRun -solver incompressibleFluid
Date   : Sep 20 2024
Time   : 09:18:25
Host   : "cfdphoto4.escet.urjc.es"
PID    : 2672361
I/O    : uncollated
Case   : /home/carlos/Desktop/tutorials/incompressible/simpleFoam/motorBike
nProcs : 1
sigFpe : Enabling floating point exception trapping (FOAM_SIGFPE).
fileModificationChecking : Monitoring run-time modified files using timeStampMaster (fileModificationSkew 10)
allowSystemOperations : Allowing user-supplied system call operations

// * * * * * * * * * * * * * * * * * * * * * * * * * * * * * * * * * * * * * //
Create time

Create mesh for time = 0

Selecting solver incompressibleFluid
Selecting viscosity model constant
Selecting turbulence model type RAS
Selecting RAS turbulence model kOmegaSST
Selecting patchDistMethod meshWave
RAS
{
    model           kOmegaSST;
    turbulence      on;
    printCoeffs     on;
    alphaK1         0.85;
    alphaK2         1;
    alphaOmega1     0.5;
    alphaOmega2     0.856;
    gamma1          0.555556;
    gamma2          0.44;
    beta1           0.075;
    beta2           0.0828;
    betaStar        0.09;
    a1              0.31;
    b1              1;
    c1              10;
    F3              false;
}

No MRF models present


SIMPLE: No convergence criteria found


SIMPLE: Operating solver in steady-state mode with 1 outer corrector
SIMPLE: Operating solver in SIMPLE mode



Starting time loop

streamlines streamlines:
    automatic track length specified through number of sub cycles : 5

Reading surface description:
    yNormal

forces forceCoeffs1:
    Not including porosity effects
forceCoeffs forceCoeffs1:
    Not including porosity effects
streamlines streamlines write:
    Seeded 20 particles
    Sampled 18935 locations
forceCoeffs forceCoeffs1 write:
    Cm    = 0.00903083
    Cd    = 0.0223821
    Cl    = 0.000742569
    Cl(f) = 0.00940212
    Cl(r) = -0.00865955

Time = 1s

smoothSolver:  Solving for Ux, Initial residual = 0.0880455, Final residual = 0.00771177, No Iterations 7
smoothSolver:  Solving for Uy, Initial residual = 0.587573, Final residual = 0.0542925, No Iterations 6
smoothSolver:  Solving for Uz, Initial residual = 0.407229, Final residual = 0.0330163, No Iterations 5
doubleDiagonalPCG:  Solving for p, Initial residual = 1, Final residual = 0.00997973, No Iterations 7402
time step continuity errors : sum local = 0.00100299, global = -8.95698e-06, cumulative = -8.95698e-06
smoothSolver:  Solving for omega, Initial residual = 0.00136998, Final residual = 7.84267e-05, No Iterations 2
bounding omega, min: -9.55827 max: 20456.2 average: 188.747
smoothSolver:  Solving for k, Initial residual = 1, Final residual = 0.0306654, No Iterations 2
ExecutionTime = 46.7306 s  ClockTime = 46 s

forceCoeffs forceCoeffs1 write:
    Cm    = 0.563542
    Cd    = 1.33369
    Cl    = -0.0373175
    Cl(f) = 0.544883
    Cl(r) = -0.582201

Time = 2s

smoothSolver:  Solving for Ux, Initial residual = 0.0388413, Final residual = 0.00347154, No Iterations 7
smoothSolver:  Solving for Uy, Initial residual = 0.377693, Final residual = 0.0313901, No Iterations 7
smoothSolver:  Solving for Uz, Initial residual = 0.16426, Final residual = 0.0124661, No Iterations 7
doubleDiagonalPCG:  Solving for p, Initial residual = 0.0759501, Final residual = 0.000754936, No Iterations 6888
time step continuity errors : sum local = 0.00077292, global = 1.03278e-05, cumulative = 1.37086e-06
smoothSolver:  Solving for omega, Initial residual = 0.00149836, Final residual = 0.000105205, No Iterations 2
bounding omega, min: -5.93483 max: 20456.2 average: 239.023
smoothSolver:  Solving for k, Initial residual = 0.051687, Final residual = 0.00177729, No Iterations 2
ExecutionTime = 83.7938 s  ClockTime = 83 s

forceCoeffs forceCoeffs1 write:
    Cm    = 0.65046
    Cd    = 1.52711
    Cl    = -0.0525305
    Cl(f) = 0.624195
    Cl(r) = -0.676725

Time = 3s

smoothSolver:  Solving for Ux, Initial residual = 0.0203114, Final residual = 0.00199602, No Iterations 7
smoothSolver:  Solving for Uy, Initial residual = 0.29266, Final residual = 0.0249603, No Iterations 7
smoothSolver:  Solving for Uz, Initial residual = 0.110686, Final residual = 0.00889065, No Iterations 7
doubleDiagonalPCG:  Solving for p, Initial residual = 0.051665, Final residual = 0.000512075, No Iterations 5915
time step continuity errors : sum local = 0.000741472, global = -7.94257e-06, cumulative = -6.57172e-06
smoothSolver:  Solving for omega, Initial residual = 0.00112932, Final residual = 7.54733e-05, No Iterations 2
smoothSolver:  Solving for k, Initial residual = 0.0223642, Final residual = 0.000868969, No Iterations 2
ExecutionTime = 116.247 s  ClockTime = 116 s

forceCoeffs forceCoeffs1 write:
    Cm    = 0.571452
    Cd    = 1.33705
    Cl    = -0.0394557
    Cl(f) = 0.551724
    Cl(r) = -0.59118

Time = 4s

smoothSolver:  Solving for Ux, Initial residual = 0.0137659, Final residual = 0.00105641, No Iterations 8
smoothSolver:  Solving for Uy, Initial residual = 0.236366, Final residual = 0.0193107, No Iterations 7
smoothSolver:  Solving for Uz, Initial residual = 0.100575, Final residual = 0.00807614, No Iterations 7
doubleDiagonalPCG:  Solving for p, Initial residual = 0.0448802, Final residual = 0.000446402, No Iterations 5506
time step continuity errors : sum local = 0.000750947, global = -1.85727e-05, cumulative = -2.51444e-05
smoothSolver:  Solving for omega, Initial residual = 0.00102226, Final residual = 7.37611e-05, No Iterations 2
smoothSolver:  Solving for k, Initial residual = 0.0130539, Final residual = 0.000545437, No Iterations 2
ExecutionTime = 146.288 s  ClockTime = 146 s

forceCoeffs forceCoeffs1 write:
    Cm    = 0.464759
    Cd    = 1.08944
    Cl    = -0.0304027
    Cl(f) = 0.449557
    Cl(r) = -0.47996

Time = 5s

smoothSolver:  Solving for Ux, Initial residual = 0.0106383, Final residual = 0.00104396, No Iterations 7
smoothSolver:  Solving for Uy, Initial residual = 0.203159, Final residual = 0.0162351, No Iterations 7
smoothSolver:  Solving for Uz, Initial residual = 0.102927, Final residual = 0.00834374, No Iterations 7
doubleDiagonalPCG:  Solving for p, Initial residual = 0.0406354, Final residual = 0.000405112, No Iterations 5179
time step continuity errors : sum local = 0.000747862, global = -1.8455e-06, cumulative = -2.69899e-05
smoothSolver:  Solving for omega, Initial residual = 0.000932697, Final residual = 6.93022e-05, No Iterations 2
smoothSolver:  Solving for k, Initial residual = 0.00904013, Final residual = 0.000394446, No Iterations 2
ExecutionTime = 174.505 s  ClockTime = 174 s

forceCoeffs forceCoeffs1 write:
    Cm    = 0.378036
    Cd    = 0.892007
    Cl    = -0.0216229
    Cl(f) = 0.367225
    Cl(r) = -0.388848

Time = 6s

smoothSolver:  Solving for Ux, Initial residual = 0.00851675, Final residual = 0.000817704, No Iterations 7
smoothSolver:  Solving for Uy, Initial residual = 0.181564, Final residual = 0.0143732, No Iterations 7
smoothSolver:  Solving for Uz, Initial residual = 0.107442, Final residual = 0.00884778, No Iterations 7
doubleDiagonalPCG:  Solving for p, Initial residual = 0.0365969, Final residual = 0.000364222, No Iterations 4976
time step continuity errors : sum local = 0.000723568, global = 1.46455e-05, cumulative = -1.23444e-05
smoothSolver:  Solving for omega, Initial residual = 0.000850555, Final residual = 6.45981e-05, No Iterations 2
smoothSolver:  Solving for k, Initial residual = 0.00703428, Final residual = 0.000319039, No Iterations 2
ExecutionTime = 201.512 s  ClockTime = 201 s

forceCoeffs forceCoeffs1 write:
    Cm    = 0.313196
    Cd    = 0.744531
    Cl    = -0.00845955
    Cl(f) = 0.308966
    Cl(r) = -0.317426

Time = 7s

smoothSolver:  Solving for Ux, Initial residual = 0.00714208, Final residual = 0.000668135, No Iterations 7
smoothSolver:  Solving for Uy, Initial residual = 0.165011, Final residual = 0.0130629, No Iterations 7
smoothSolver:  Solving for Uz, Initial residual = 0.117673, Final residual = 0.0096689, No Iterations 7
doubleDiagonalPCG:  Solving for p, Initial residual = 0.0327342, Final residual = 0.00032559, No Iterations 4783
time step continuity errors : sum local = 0.000686577, global = 2.45322e-05, cumulative = 1.21878e-05
smoothSolver:  Solving for omega, Initial residual = 0.000773036, Final residual = 5.93497e-05, No Iterations 2
smoothSolver:  Solving for k, Initial residual = 0.00587283, Final residual = 0.000276508, No Iterations 2
ExecutionTime = 227.586 s  ClockTime = 227 s

forceCoeffs forceCoeffs1 write:
    Cm    = 0.267612
    Cd    = 0.640437
    Cl    = 0.0017931
    Cl(f) = 0.268508
    Cl(r) = -0.266715

Time = 8s

smoothSolver:  Solving for Ux, Initial residual = 0.0061389, Final residual = 0.000573347, No Iterations 7
smoothSolver:  Solving for Uy, Initial residual = 0.147784, Final residual = 0.0116043, No Iterations 7
smoothSolver:  Solving for Uz, Initial residual = 0.12799, Final residual = 0.0104717, No Iterations 7
doubleDiagonalPCG:  Solving for p, Initial residual = 0.029978, Final residual = 0.000299358, No Iterations 3401
time step continuity errors : sum local = 0.000659261, global = 3.28241e-05, cumulative = 4.50119e-05
smoothSolver:  Solving for omega, Initial residual = 0.000708377, Final residual = 5.44197e-05, No Iterations 2
smoothSolver:  Solving for k, Initial residual = 0.00514393, Final residual = 0.000252429, No Iterations 2
ExecutionTime = 246.478 s  ClockTime = 246 s

forceCoeffs forceCoeffs1 write:
    Cm    = 0.235988
    Cd    = 0.569394
    Cl    = 0.00860385
    Cl(f) = 0.24029
    Cl(r) = -0.231686

Time = 9s

smoothSolver:  Solving for Ux, Initial residual = 0.00539423, Final residual = 0.000515343, No Iterations 7
smoothSolver:  Solving for Uy, Initial residual = 0.131891, Final residual = 0.0102588, No Iterations 7
smoothSolver:  Solving for Uz, Initial residual = 0.135542, Final residual = 0.0110943, No Iterations 7
doubleDiagonalPCG:  Solving for p, Initial residual = 0.0281003, Final residual = 0.000278494, No Iterations 3484
time step continuity errors : sum local = 0.000626113, global = 4.2406e-06, cumulative = 4.92525e-05
smoothSolver:  Solving for omega, Initial residual = 0.000652508, Final residual = 5.00702e-05, No Iterations 2
smoothSolver:  Solving for k, Initial residual = 0.00464888, Final residual = 0.000237604, No Iterations 2
ExecutionTime = 265.815 s  ClockTime = 265 s

forceCoeffs forceCoeffs1 write:
    Cm    = 0.214766
    Cd    = 0.522216
    Cl    = 0.0118501
    Cl(f) = 0.220691
    Cl(r) = -0.208841

Time = 10s

smoothSolver:  Solving for Ux, Initial residual = 0.00482807, Final residual = 0.000470558, No Iterations 7
smoothSolver:  Solving for Uy, Initial residual = 0.119637, Final residual = 0.00921994, No Iterations 7
smoothSolver:  Solving for Uz, Initial residual = 0.124558, Final residual = 0.0102381, No Iterations 7
doubleDiagonalPCG:  Solving for p, Initial residual = 0.0263905, Final residual = 0.000262677, No Iterations 3656
time step continuity errors : sum local = 0.000600084, global = -2.83e-05, cumulative = 2.09524e-05
smoothSolver:  Solving for omega, Initial residual = 0.00060424, Final residual = 4.64541e-05, No Iterations 2
smoothSolver:  Solving for k, Initial residual = 0.00428703, Final residual = 0.000228327, No Iterations 2
ExecutionTime = 286.057 s  ClockTime = 286 s

forceCoeffs forceCoeffs1 write:
    Cm    = 0.200794
    Cd    = 0.491175
    Cl    = 0.013171
    Cl(f) = 0.20738
    Cl(r) = -0.194209

Time = 11s

smoothSolver:  Solving for Ux, Initial residual = 0.00442008, Final residual = 0.000433978, No Iterations 7
smoothSolver:  Solving for Uy, Initial residual = 0.107178, Final residual = 0.00826032, No Iterations 7
smoothSolver:  Solving for Uz, Initial residual = 0.113314, Final residual = 0.00932859, No Iterations 7
doubleDiagonalPCG:  Solving for p, Initial residual = 0.0251201, Final residual = 0.0002502, No Iterations 4066
time step continuity errors : sum local = 0.000573745, global = -2.88786e-05, cumulative = -7.92612e-06
smoothSolver:  Solving for omega, Initial residual = 0.00056743, Final residual = 4.35127e-05, No Iterations 2
smoothSolver:  Solving for k, Initial residual = 0.00400628, Final residual = 0.000221344, No Iterations 2
ExecutionTime = 308.608 s  ClockTime = 308 s

forceCoeffs forceCoeffs1 write:
    Cm    = 0.191091
    Cd    = 0.469781
    Cl    = 0.0152539
    Cl(f) = 0.198718
    Cl(r) = -0.183464

Time = 12s

smoothSolver:  Solving for Ux, Initial residual = 0.00412467, Final residual = 0.00040674, No Iterations 7
smoothSolver:  Solving for Uy, Initial residual = 0.0969273, Final residual = 0.00757563, No Iterations 7
smoothSolver:  Solving for Uz, Initial residual = 0.107121, Final residual = 0.00895066, No Iterations 7
doubleDiagonalPCG:  Solving for p, Initial residual = 0.0242201, Final residual = 0.000242009, No Iterations 4196
time step continuity errors : sum local = 0.000549478, global = -1.9452e-05, cumulative = -2.73781e-05
smoothSolver:  Solving for omega, Initial residual = 0.000535902, Final residual = 4.08416e-05, No Iterations 2
smoothSolver:  Solving for k, Initial residual = 0.00377342, Final residual = 0.000215833, No Iterations 2
ExecutionTime = 331.719 s  ClockTime = 331 s

forceCoeffs forceCoeffs1 write:
    Cm    = 0.184472
    Cd    = 0.45463
    Cl    = 0.0202422
    Cl(f) = 0.194593
    Cl(r) = -0.174351

Time = 13s

smoothSolver:  Solving for Ux, Initial residual = 0.00392127, Final residual = 0.000385614, No Iterations 7
smoothSolver:  Solving for Uy, Initial residual = 0.088373, Final residual = 0.00700349, No Iterations 7
smoothSolver:  Solving for Uz, Initial residual = 0.103376, Final residual = 0.00871873, No Iterations 7
doubleDiagonalPCG:  Solving for p, Initial residual = 0.0236558, Final residual = 0.000236477, No Iterations 3908
time step continuity errors : sum local = 0.000528877, global = -2.54334e-05, cumulative = -5.28115e-05
smoothSolver:  Solving for omega, Initial residual = 0.00050739, Final residual = 3.8435e-05, No Iterations 2
smoothSolver:  Solving for k, Initial residual = 0.00358706, Final residual = 0.000212136, No Iterations 2
ExecutionTime = 353.226 s  ClockTime = 353 s

forceCoeffs forceCoeffs1 write:
    Cm    = 0.180664
    Cd    = 0.444975
    Cl    = 0.0253016
    Cl(f) = 0.193315
    Cl(r) = -0.168013

Time = 14s

smoothSolver:  Solving for Ux, Initial residual = 0.00376592, Final residual = 0.000372295, No Iterations 7
smoothSolver:  Solving for Uy, Initial residual = 0.0813001, Final residual = 0.00648536, No Iterations 7
smoothSolver:  Solving for Uz, Initial residual = 0.0990645, Final residual = 0.00832446, No Iterations 7
doubleDiagonalPCG:  Solving for p, Initial residual = 0.0232407, Final residual = 0.000232049, No Iterations 3350
time step continuity errors : sum local = 0.000513516, global = -3.78714e-05, cumulative = -9.0683e-05
smoothSolver:  Solving for omega, Initial residual = 0.000482071, Final residual = 3.63252e-05, No Iterations 2
smoothSolver:  Solving for k, Initial residual = 0.00344153, Final residual = 0.00020918, No Iterations 2
ExecutionTime = 372.319 s  ClockTime = 372 s

forceCoeffs forceCoeffs1 write:
    Cm    = 0.179351
    Cd    = 0.44031
    Cl    = 0.0310005
    Cl(f) = 0.194852
    Cl(r) = -0.163851

Time = 15s

smoothSolver:  Solving for Ux, Initial residual = 0.00362133, Final residual = 0.000361015, No Iterations 7
smoothSolver:  Solving for Uy, Initial residual = 0.0756747, Final residual = 0.00608562, No Iterations 7
smoothSolver:  Solving for Uz, Initial residual = 0.0904575, Final residual = 0.00761352, No Iterations 7
doubleDiagonalPCG:  Solving for p, Initial residual = 0.022713, Final residual = 0.000226645, No Iterations 3234
time step continuity errors : sum local = 0.000498115, global = -3.01824e-05, cumulative = -0.000120865
smoothSolver:  Solving for omega, Initial residual = 0.000456887, Final residual = 3.43385e-05, No Iterations 2
smoothSolver:  Solving for k, Initial residual = 0.00331841, Final residual = 0.000206633, No Iterations 2
ExecutionTime = 390.638 s  ClockTime = 390 s

forceCoeffs forceCoeffs1 write:
    Cm    = 0.179439
    Cd    = 0.438097
    Cl    = 0.0365815
    Cl(f) = 0.197729
    Cl(r) = -0.161148

Time = 16s

smoothSolver:  Solving for Ux, Initial residual = 0.00347031, Final residual = 0.000346427, No Iterations 7
smoothSolver:  Solving for Uy, Initial residual = 0.0707657, Final residual = 0.00576991, No Iterations 7
smoothSolver:  Solving for Uz, Initial residual = 0.0823353, Final residual = 0.00691691, No Iterations 7
doubleDiagonalPCG:  Solving for p, Initial residual = 0.0221922, Final residual = 0.000221447, No Iterations 3147
time step continuity errors : sum local = 0.000482933, global = -1.61606e-05, cumulative = -0.000137026
smoothSolver:  Solving for omega, Initial residual = 0.00043411, Final residual = 3.24466e-05, No Iterations 2
smoothSolver:  Solving for k, Initial residual = 0.00320338, Final residual = 0.000204649, No Iterations 2
ExecutionTime = 408.397 s  ClockTime = 408 s

forceCoeffs forceCoeffs1 write:
    Cm    = 0.179882
    Cd    = 0.436812
    Cl    = 0.0422878
    Cl(f) = 0.201026
    Cl(r) = -0.158738

Time = 17s

smoothSolver:  Solving for Ux, Initial residual = 0.00332666, Final residual = 0.000248934, No Iterations 8
smoothSolver:  Solving for Uy, Initial residual = 0.0666061, Final residual = 0.00550318, No Iterations 7
smoothSolver:  Solving for Uz, Initial residual = 0.0748612, Final residual = 0.00625359, No Iterations 7
doubleDiagonalPCG:  Solving for p, Initial residual = 0.0215555, Final residual = 0.000215391, No Iterations 3133
time step continuity errors : sum local = 0.000467905, global = -3.09017e-06, cumulative = -0.000140116
smoothSolver:  Solving for omega, Initial residual = 0.000413838, Final residual = 3.07456e-05, No Iterations 2
smoothSolver:  Solving for k, Initial residual = 0.0030954, Final residual = 0.000202367, No Iterations 2
ExecutionTime = 426.015 s  ClockTime = 426 s

forceCoeffs forceCoeffs1 write:
    Cm    = 0.180159
    Cd    = 0.43617
    Cl    = 0.0471707
    Cl(f) = 0.203744
    Cl(r) = -0.156573

Time = 18s

smoothSolver:  Solving for Ux, Initial residual = 0.00317109, Final residual = 0.000238933, No Iterations 8
smoothSolver:  Solving for Uy, Initial residual = 0.0630481, Final residual = 0.00522119, No Iterations 7
smoothSolver:  Solving for Uz, Initial residual = 0.068426, Final residual = 0.00568657, No Iterations 7
doubleDiagonalPCG:  Solving for p, Initial residual = 0.020822, Final residual = 0.000208209, No Iterations 3115
time step continuity errors : sum local = 0.000451057, global = 1.93954e-06, cumulative = -0.000138177
smoothSolver:  Solving for omega, Initial residual = 0.00039577, Final residual = 2.92232e-05, No Iterations 2
smoothSolver:  Solving for k, Initial residual = 0.00300698, Final residual = 0.000200235, No Iterations 2
ExecutionTime = 443.711 s  ClockTime = 443 s

forceCoeffs forceCoeffs1 write:
    Cm    = 0.180406
    Cd    = 0.436179
    Cl    = 0.0498406
    Cl(f) = 0.205327
    Cl(r) = -0.155486

Time = 19s

smoothSolver:  Solving for Ux, Initial residual = 0.00301385, Final residual = 0.000226982, No Iterations 8
smoothSolver:  Solving for Uy, Initial residual = 0.0594998, Final residual = 0.00490558, No Iterations 7
smoothSolver:  Solving for Uz, Initial residual = 0.0634019, Final residual = 0.0052862, No Iterations 7
doubleDiagonalPCG:  Solving for p, Initial residual = 0.0201442, Final residual = 0.000198906, No Iterations 3040
time step continuity errors : sum local = 0.000430651, global = -4.44722e-06, cumulative = -0.000142624
smoothSolver:  Solving for omega, Initial residual = 0.000378171, Final residual = 2.78546e-05, No Iterations 2
smoothSolver:  Solving for k, Initial residual = 0.0029335, Final residual = 0.00019827, No Iterations 2
ExecutionTime = 460.749 s  ClockTime = 460 s

forceCoeffs forceCoeffs1 write:
    Cm    = 0.180516
    Cd    = 0.435743
    Cl    = 0.0511579
    Cl(f) = 0.206094
    Cl(r) = -0.154937

Time = 20s

smoothSolver:  Solving for Ux, Initial residual = 0.00287333, Final residual = 0.000215586, No Iterations 8
smoothSolver:  Solving for Uy, Initial residual = 0.0562168, Final residual = 0.0046434, No Iterations 7
smoothSolver:  Solving for Uz, Initial residual = 0.0599655, Final residual = 0.0050405, No Iterations 7
doubleDiagonalPCG:  Solving for p, Initial residual = 0.0196399, Final residual = 0.000195598, No Iterations 2990
time step continuity errors : sum local = 0.000423191, global = -1.42298e-05, cumulative = -0.000156854
smoothSolver:  Solving for omega, Initial residual = 0.000363929, Final residual = 2.66531e-05, No Iterations 2
smoothSolver:  Solving for k, Initial residual = 0.00287286, Final residual = 0.000196493, No Iterations 2
ExecutionTime = 477.809 s  ClockTime = 478 s

forceCoeffs forceCoeffs1 write:
    Cm    = 0.180202
    Cd    = 0.43438
    Cl    = 0.0516072
    Cl(f) = 0.206006
    Cl(r) = -0.154399

Time = 21s

smoothSolver:  Solving for Ux, Initial residual = 0.00275807, Final residual = 0.000207938, No Iterations 8
smoothSolver:  Solving for Uy, Initial residual = 0.053308, Final residual = 0.00444161, No Iterations 7
smoothSolver:  Solving for Uz, Initial residual = 0.0573474, Final residual = 0.00487355, No Iterations 7
doubleDiagonalPCG:  Solving for p, Initial residual = 0.0191119, Final residual = 0.000190727, No Iterations 2954
time step continuity errors : sum local = 0.000411663, global = -2.2968e-05, cumulative = -0.000179822
smoothSolver:  Solving for omega, Initial residual = 0.00035018, Final residual = 2.54694e-05, No Iterations 2
smoothSolver:  Solving for k, Initial residual = 0.00281751, Final residual = 0.000193449, No Iterations 2
ExecutionTime = 494.613 s  ClockTime = 494 s

forceCoeffs forceCoeffs1 write:
    Cm    = 0.179642
    Cd    = 0.432951
    Cl    = 0.0510406
    Cl(f) = 0.205162
    Cl(r) = -0.154121

Time = 22s

smoothSolver:  Solving for Ux, Initial residual = 0.0026599, Final residual = 0.000200761, No Iterations 8
smoothSolver:  Solving for Uy, Initial residual = 0.0509873, Final residual = 0.00430097, No Iterations 7
smoothSolver:  Solving for Uz, Initial residual = 0.0549907, Final residual = 0.0047103, No Iterations 7
doubleDiagonalPCG:  Solving for p, Initial residual = 0.0185121, Final residual = 0.000184599, No Iterations 2927
time step continuity errors : sum local = 0.000397044, global = -2.87722e-05, cumulative = -0.000208594
smoothSolver:  Solving for omega, Initial residual = 0.000336991, Final residual = 2.43526e-05, No Iterations 2
smoothSolver:  Solving for k, Initial residual = 0.00274889, Final residual = 0.000189953, No Iterations 2
ExecutionTime = 511.388 s  ClockTime = 511 s

forceCoeffs forceCoeffs1 write:
    Cm    = 0.178542
    Cd    = 0.43132
    Cl    = 0.0501292
    Cl(f) = 0.203607
    Cl(r) = -0.153478

Time = 23s

smoothSolver:  Solving for Ux, Initial residual = 0.00256647, Final residual = 0.000194085, No Iterations 8
smoothSolver:  Solving for Uy, Initial residual = 0.049228, Final residual = 0.00421725, No Iterations 7
smoothSolver:  Solving for Uz, Initial residual = 0.0529536, Final residual = 0.00455553, No Iterations 7
doubleDiagonalPCG:  Solving for p, Initial residual = 0.0179022, Final residual = 0.000178885, No Iterations 3119
time step continuity errors : sum local = 0.000383255, global = -2.62674e-05, cumulative = -0.000234861
smoothSolver:  Solving for omega, Initial residual = 0.000323385, Final residual = 2.32413e-05, No Iterations 2
smoothSolver:  Solving for k, Initial residual = 0.00267628, Final residual = 0.000186264, No Iterations 2
ExecutionTime = 528.919 s  ClockTime = 529 s

forceCoeffs forceCoeffs1 write:
    Cm    = 0.176878
    Cd    = 0.429418
    Cl    = 0.0490926
    Cl(f) = 0.201424
    Cl(r) = -0.152332

Time = 24s

smoothSolver:  Solving for Ux, Initial residual = 0.00247282, Final residual = 0.000186447, No Iterations 8
smoothSolver:  Solving for Uy, Initial residual = 0.048151, Final residual = 0.00415708, No Iterations 7
smoothSolver:  Solving for Uz, Initial residual = 0.0509738, Final residual = 0.00439818, No Iterations 7
doubleDiagonalPCG:  Solving for p, Initial residual = 0.0172918, Final residual = 0.000171788, No Iterations 3191
time step continuity errors : sum local = 0.000365769, global = -2.33734e-05, cumulative = -0.000258235
smoothSolver:  Solving for omega, Initial residual = 0.000308994, Final residual = 2.22158e-05, No Iterations 2
smoothSolver:  Solving for k, Initial residual = 0.00261782, Final residual = 0.000183264, No Iterations 2
ExecutionTime = 546.767 s  ClockTime = 546 s

forceCoeffs forceCoeffs1 write:
    Cm    = 0.174592
    Cd    = 0.426839
    Cl    = 0.0482473
    Cl(f) = 0.198716
    Cl(r) = -0.150469

Time = 25s

smoothSolver:  Solving for Ux, Initial residual = 0.00237367, Final residual = 0.000178072, No Iterations 8
smoothSolver:  Solving for Uy, Initial residual = 0.0469605, Final residual = 0.00404437, No Iterations 7
smoothSolver:  Solving for Uz, Initial residual = 0.0486374, Final residual = 0.00421278, No Iterations 7
doubleDiagonalPCG:  Solving for p, Initial residual = 0.0167144, Final residual = 0.000166811, No Iterations 3133
time step continuity errors : sum local = 0.000353036, global = -2.31285e-05, cumulative = -0.000281363
smoothSolver:  Solving for omega, Initial residual = 0.000297543, Final residual = 2.14341e-05, No Iterations 2
smoothSolver:  Solving for k, Initial residual = 0.00258197, Final residual = 0.000182096, No Iterations 2
ExecutionTime = 564.431 s  ClockTime = 564 s

forceCoeffs forceCoeffs1 write:
    Cm    = 0.171636
    Cd    = 0.423819
    Cl    = 0.0479962
    Cl(f) = 0.195634
    Cl(r) = -0.147638

Time = 26s

smoothSolver:  Solving for Ux, Initial residual = 0.00227818, Final residual = 0.000169783, No Iterations 8
smoothSolver:  Solving for Uy, Initial residual = 0.0457776, Final residual = 0.00392178, No Iterations 7
smoothSolver:  Solving for Uz, Initial residual = 0.0463454, Final residual = 0.00399391, No Iterations 7
doubleDiagonalPCG:  Solving for p, Initial residual = 0.0162274, Final residual = 0.000161844, No Iterations 3039
time step continuity errors : sum local = 0.00034034, global = -2.27738e-05, cumulative = -0.000304137
smoothSolver:  Solving for omega, Initial residual = 0.000287175, Final residual = 2.06532e-05, No Iterations 2
smoothSolver:  Solving for k, Initial residual = 0.00254172, Final residual = 0.00018051, No Iterations 2
ExecutionTime = 581.599 s  ClockTime = 581 s

forceCoeffs forceCoeffs1 write:
    Cm    = 0.168724
    Cd    = 0.421308
    Cl    = 0.0488504
    Cl(f) = 0.193149
    Cl(r) = -0.144299

Time = 27s

smoothSolver:  Solving for Ux, Initial residual = 0.00215569, Final residual = 0.000160772, No Iterations 8
smoothSolver:  Solving for Uy, Initial residual = 0.0442426, Final residual = 0.00376175, No Iterations 7
smoothSolver:  Solving for Uz, Initial residual = 0.0437833, Final residual = 0.00374208, No Iterations 7
doubleDiagonalPCG:  Solving for p, Initial residual = 0.0157927, Final residual = 0.000157666, No Iterations 3007
time step continuity errors : sum local = 0.000329515, global = -2.06645e-05, cumulative = -0.000324801
smoothSolver:  Solving for omega, Initial residual = 0.000276786, Final residual = 1.98371e-05, No Iterations 2
smoothSolver:  Solving for k, Initial residual = 0.00250328, Final residual = 0.000177864, No Iterations 2
ExecutionTime = 598.597 s  ClockTime = 598 s

forceCoeffs forceCoeffs1 write:
    Cm    = 0.165996
    Cd    = 0.418936
    Cl    = 0.0503674
    Cl(f) = 0.19118
    Cl(r) = -0.140813

Time = 28s

smoothSolver:  Solving for Ux, Initial residual = 0.00203838, Final residual = 0.000152696, No Iterations 8
smoothSolver:  Solving for Uy, Initial residual = 0.042256, Final residual = 0.00357089, No Iterations 7
smoothSolver:  Solving for Uz, Initial residual = 0.0408738, Final residual = 0.00345804, No Iterations 7
doubleDiagonalPCG:  Solving for p, Initial residual = 0.0153686, Final residual = 0.000153569, No Iterations 2964
time step continuity errors : sum local = 0.000319349, global = -1.90891e-05, cumulative = -0.000343891
smoothSolver:  Solving for omega, Initial residual = 0.000266994, Final residual = 1.91141e-05, No Iterations 2
smoothSolver:  Solving for k, Initial residual = 0.0024681, Final residual = 0.000176098, No Iterations 2
ExecutionTime = 615.309 s  ClockTime = 615 s

forceCoeffs forceCoeffs1 write:
    Cm    = 0.16356
    Cd    = 0.41673
    Cl    = 0.052571
    Cl(f) = 0.189846
    Cl(r) = -0.137275

Time = 29s

smoothSolver:  Solving for Ux, Initial residual = 0.00192201, Final residual = 0.000144083, No Iterations 8
smoothSolver:  Solving for Uy, Initial residual = 0.0398006, Final residual = 0.00332932, No Iterations 7
smoothSolver:  Solving for Uz, Initial residual = 0.037977, Final residual = 0.00318159, No Iterations 7
doubleDiagonalPCG:  Solving for p, Initial residual = 0.0148621, Final residual = 0.000148469, No Iterations 2969
time step continuity errors : sum local = 0.000307214, global = -1.7779e-05, cumulative = -0.00036167
smoothSolver:  Solving for omega, Initial residual = 0.000257407, Final residual = 1.84492e-05, No Iterations 2
smoothSolver:  Solving for k, Initial residual = 0.00243944, Final residual = 0.000174971, No Iterations 2
ExecutionTime = 631.929 s  ClockTime = 632 s

forceCoeffs forceCoeffs1 write:
    Cm    = 0.161521
    Cd    = 0.414655
    Cl    = 0.0549547
    Cl(f) = 0.188999
    Cl(r) = -0.134044

Time = 30s

smoothSolver:  Solving for Ux, Initial residual = 0.00181772, Final residual = 0.000181247, No Iterations 7
smoothSolver:  Solving for Uy, Initial residual = 0.0372296, Final residual = 0.00308084, No Iterations 7
smoothSolver:  Solving for Uz, Initial residual = 0.0353765, Final residual = 0.00292863, No Iterations 7
doubleDiagonalPCG:  Solving for p, Initial residual = 0.0143924, Final residual = 0.000143416, No Iterations 3017
time step continuity errors : sum local = 0.000295416, global = -1.63787e-05, cumulative = -0.000378048
smoothSolver:  Solving for omega, Initial residual = 0.00024873, Final residual = 1.78248e-05, No Iterations 2
smoothSolver:  Solving for k, Initial residual = 0.00242189, Final residual = 0.00017425, No Iterations 2
ExecutionTime = 649.137 s  ClockTime = 649 s

forceCoeffs forceCoeffs1 write:
    Cm    = 0.159994
    Cd    = 0.412822
    Cl    = 0.0570133
    Cl(f) = 0.1885
    Cl(r) = -0.131487

Time = 31s

smoothSolver:  Solving for Ux, Initial residual = 0.001727, Final residual = 0.000169444, No Iterations 7
smoothSolver:  Solving for Uy, Initial residual = 0.0347945, Final residual = 0.00282817, No Iterations 7
smoothSolver:  Solving for Uz, Initial residual = 0.033167, Final residual = 0.00269871, No Iterations 7
doubleDiagonalPCG:  Solving for p, Initial residual = 0.0139425, Final residual = 0.000139112, No Iterations 3082
time step continuity errors : sum local = 0.000285328, global = -1.46006e-05, cumulative = -0.000392649
smoothSolver:  Solving for omega, Initial residual = 0.000240146, Final residual = 1.72011e-05, No Iterations 2
smoothSolver:  Solving for k, Initial residual = 0.00240777, Final residual = 0.000173561, No Iterations 2
ExecutionTime = 666.314 s  ClockTime = 666 s

forceCoeffs forceCoeffs1 write:
    Cm    = 0.158764
    Cd    = 0.411179
    Cl    = 0.0588016
    Cl(f) = 0.188165
    Cl(r) = -0.129363

Time = 32s

smoothSolver:  Solving for Ux, Initial residual = 0.00163849, Final residual = 0.000158096, No Iterations 7
smoothSolver:  Solving for Uy, Initial residual = 0.0327702, Final residual = 0.00261038, No Iterations 7
smoothSolver:  Solving for Uz, Initial residual = 0.0313577, Final residual = 0.00249888, No Iterations 7
doubleDiagonalPCG:  Solving for p, Initial residual = 0.0135329, Final residual = 0.000134783, No Iterations 3074
time step continuity errors : sum local = 0.000275105, global = -1.48913e-05, cumulative = -0.00040754
smoothSolver:  Solving for omega, Initial residual = 0.000232356, Final residual = 1.66075e-05, No Iterations 2
smoothSolver:  Solving for k, Initial residual = 0.00238199, Final residual = 0.000171984, No Iterations 2
ExecutionTime = 683.701 s  ClockTime = 683 s

forceCoeffs forceCoeffs1 write:
    Cm    = 0.157753
    Cd    = 0.409868
    Cl    = 0.060486
    Cl(f) = 0.187996
    Cl(r) = -0.12751

Time = 33s

smoothSolver:  Solving for Ux, Initial residual = 0.00154969, Final residual = 0.000147288, No Iterations 7
smoothSolver:  Solving for Uy, Initial residual = 0.0311423, Final residual = 0.00243962, No Iterations 7
smoothSolver:  Solving for Uz, Initial residual = 0.0298281, Final residual = 0.00233946, No Iterations 7
doubleDiagonalPCG:  Solving for p, Initial residual = 0.0131121, Final residual = 0.000131011, No Iterations 3206
time step continuity errors : sum local = 0.000266072, global = -1.12118e-05, cumulative = -0.000418752
smoothSolver:  Solving for omega, Initial residual = 0.000225401, Final residual = 1.60953e-05, No Iterations 2
smoothSolver:  Solving for k, Initial residual = 0.00235394, Final residual = 0.000169929, No Iterations 2
ExecutionTime = 702.01 s  ClockTime = 702 s

forceCoeffs forceCoeffs1 write:
    Cm    = 0.15706
    Cd    = 0.409025
    Cl    = 0.061943
    Cl(f) = 0.188032
    Cl(r) = -0.126089

Time = 34s

smoothSolver:  Solving for Ux, Initial residual = 0.00146682, Final residual = 0.000137875, No Iterations 7
smoothSolver:  Solving for Uy, Initial residual = 0.0300709, Final residual = 0.00232413, No Iterations 7
smoothSolver:  Solving for Uz, Initial residual = 0.0285353, Final residual = 0.00219736, No Iterations 7
doubleDiagonalPCG:  Solving for p, Initial residual = 0.0127713, Final residual = 0.000127669, No Iterations 3263
time step continuity errors : sum local = 0.000257966, global = -9.41981e-06, cumulative = -0.000428172
smoothSolver:  Solving for omega, Initial residual = 0.000218958, Final residual = 1.5594e-05, No Iterations 2
smoothSolver:  Solving for k, Initial residual = 0.00231535, Final residual = 0.000167396, No Iterations 2
ExecutionTime = 720.479 s  ClockTime = 720 s

forceCoeffs forceCoeffs1 write:
    Cm    = 0.15666
    Cd    = 0.408544
    Cl    = 0.0632386
    Cl(f) = 0.188279
    Cl(r) = -0.12504

Time = 35s

smoothSolver:  Solving for Ux, Initial residual = 0.00139737, Final residual = 0.00012986, No Iterations 7
smoothSolver:  Solving for Uy, Initial residual = 0.0292966, Final residual = 0.00224382, No Iterations 7
smoothSolver:  Solving for Uz, Initial residual = 0.0273615, Final residual = 0.00206239, No Iterations 7
doubleDiagonalPCG:  Solving for p, Initial residual = 0.0124346, Final residual = 0.000124311, No Iterations 2976
time step continuity errors : sum local = 0.000249844, global = -1.40807e-05, cumulative = -0.000442252
smoothSolver:  Solving for omega, Initial residual = 0.000212915, Final residual = 1.51517e-05, No Iterations 2
smoothSolver:  Solving for k, Initial residual = 0.00228072, Final residual = 0.000165313, No Iterations 2
ExecutionTime = 737.401 s  ClockTime = 737 s

forceCoeffs forceCoeffs1 write:
    Cm    = 0.156513
    Cd    = 0.408156
    Cl    = 0.0641924
    Cl(f) = 0.18861
    Cl(r) = -0.124417

Time = 36s

smoothSolver:  Solving for Ux, Initial residual = 0.00133441, Final residual = 0.000122388, No Iterations 7
smoothSolver:  Solving for Uy, Initial residual = 0.0285745, Final residual = 0.00216883, No Iterations 7
smoothSolver:  Solving for Uz, Initial residual = 0.0262516, Final residual = 0.00193713, No Iterations 7
doubleDiagonalPCG:  Solving for p, Initial residual = 0.0120438, Final residual = 0.000120231, No Iterations 2956
time step continuity errors : sum local = 0.000240419, global = -1.19662e-05, cumulative = -0.000454219
smoothSolver:  Solving for omega, Initial residual = 0.000206414, Final residual = 1.46535e-05, No Iterations 2
smoothSolver:  Solving for k, Initial residual = 0.00225234, Final residual = 0.000163603, No Iterations 2
ExecutionTime = 754.301 s  ClockTime = 754 s

forceCoeffs forceCoeffs1 write:
    Cm    = 0.156537
    Cd    = 0.407736
    Cl    = 0.0650051
    Cl(f) = 0.18904
    Cl(r) = -0.124035

Time = 37s

smoothSolver:  Solving for Ux, Initial residual = 0.00127106, Final residual = 0.000115892, No Iterations 7
smoothSolver:  Solving for Uy, Initial residual = 0.027773, Final residual = 0.00209706, No Iterations 7
smoothSolver:  Solving for Uz, Initial residual = 0.0251804, Final residual = 0.00251319, No Iterations 6
doubleDiagonalPCG:  Solving for p, Initial residual = 0.0116746, Final residual = 0.000116665, No Iterations 2892
time step continuity errors : sum local = 0.000232018, global = -1.06516e-05, cumulative = -0.00046487
smoothSolver:  Solving for omega, Initial residual = 0.000200183, Final residual = 1.41637e-05, No Iterations 2
smoothSolver:  Solving for k, Initial residual = 0.00222673, Final residual = 0.000161148, No Iterations 2
ExecutionTime = 770.916 s  ClockTime = 771 s

forceCoeffs forceCoeffs1 write:
    Cm    = 0.156802
    Cd    = 0.407389
    Cl    = 0.0653777
    Cl(f) = 0.189491
    Cl(r) = -0.124113

Time = 38s

smoothSolver:  Solving for Ux, Initial residual = 0.00121469, Final residual = 0.000110459, No Iterations 7
smoothSolver:  Solving for Uy, Initial residual = 0.0269195, Final residual = 0.0020109, No Iterations 7
smoothSolver:  Solving for Uz, Initial residual = 0.0242219, Final residual = 0.0017766, No Iterations 7
doubleDiagonalPCG:  Solving for p, Initial residual = 0.0113005, Final residual = 0.000112942, No Iterations 2634
time step continuity errors : sum local = 0.000223405, global = -1.4882e-05, cumulative = -0.000479752
smoothSolver:  Solving for omega, Initial residual = 0.000192956, Final residual = 1.36472e-05, No Iterations 2
smoothSolver:  Solving for k, Initial residual = 0.00218169, Final residual = 0.000158347, No Iterations 2
ExecutionTime = 786.053 s  ClockTime = 786 s

forceCoeffs forceCoeffs1 write:
    Cm    = 0.157342
    Cd    = 0.407136
    Cl    = 0.065233
    Cl(f) = 0.189959
    Cl(r) = -0.124726

Time = 39s

smoothSolver:  Solving for Ux, Initial residual = 0.00116231, Final residual = 0.000105065, No Iterations 7
smoothSolver:  Solving for Uy, Initial residual = 0.0261329, Final residual = 0.00193714, No Iterations 7
smoothSolver:  Solving for Uz, Initial residual = 0.0232123, Final residual = 0.00231844, No Iterations 6
doubleDiagonalPCG:  Solving for p, Initial residual = 0.0108678, Final residual = 0.000108627, No Iterations 2488
time step continuity errors : sum local = 0.000214004, global = -1.67795e-05, cumulative = -0.000496532
smoothSolver:  Solving for omega, Initial residual = 0.000186271, Final residual = 1.31771e-05, No Iterations 2
smoothSolver:  Solving for k, Initial residual = 0.0021365, Final residual = 0.000155784, No Iterations 2
ExecutionTime = 800.395 s  ClockTime = 800 s

forceCoeffs forceCoeffs1 write:
    Cm    = 0.157928
    Cd    = 0.406827
    Cl    = 0.0645404
    Cl(f) = 0.190198
    Cl(r) = -0.125657

Time = 40s

smoothSolver:  Solving for Ux, Initial residual = 0.00111755, Final residual = 0.00010024, No Iterations 7
smoothSolver:  Solving for Uy, Initial residual = 0.0253203, Final residual = 0.00187172, No Iterations 7
smoothSolver:  Solving for Uz, Initial residual = 0.0223877, Final residual = 0.00223325, No Iterations 6
doubleDiagonalPCG:  Solving for p, Initial residual = 0.0104579, Final residual = 0.000104503, No Iterations 2388
time step continuity errors : sum local = 0.000205074, global = -1.63364e-05, cumulative = -0.000512868
smoothSolver:  Solving for omega, Initial residual = 0.000179367, Final residual = 1.27172e-05, No Iterations 2
smoothSolver:  Solving for k, Initial residual = 0.00209066, Final residual = 0.00015362, No Iterations 2
ExecutionTime = 814.117 s  ClockTime = 814 s

forceCoeffs forceCoeffs1 write:
    Cm    = 0.158553
    Cd    = 0.406488
    Cl    = 0.0635554
    Cl(f) = 0.190331
    Cl(r) = -0.126776

Time = 41s

smoothSolver:  Solving for Ux, Initial residual = 0.00107558, Final residual = 9.66555e-05, No Iterations 7
smoothSolver:  Solving for Uy, Initial residual = 0.0244939, Final residual = 0.00180756, No Iterations 7
smoothSolver:  Solving for Uz, Initial residual = 0.0217178, Final residual = 0.00159605, No Iterations 7
doubleDiagonalPCG:  Solving for p, Initial residual = 0.0100728, Final residual = 0.00010007, No Iterations 2404
time step continuity errors : sum local = 0.000195653, global = -1.29796e-05, cumulative = -0.000525848
smoothSolver:  Solving for omega, Initial residual = 0.000173042, Final residual = 1.22774e-05, No Iterations 2
smoothSolver:  Solving for k, Initial residual = 0.00204874, Final residual = 0.000151568, No Iterations 2
ExecutionTime = 828.115 s  ClockTime = 828 s

forceCoeffs forceCoeffs1 write:
    Cm    = 0.159157
    Cd    = 0.406265
    Cl    = 0.0624372
    Cl(f) = 0.190376
    Cl(r) = -0.127938

Time = 42s

smoothSolver:  Solving for Ux, Initial residual = 0.00104334, Final residual = 9.4275e-05, No Iterations 7
smoothSolver:  Solving for Uy, Initial residual = 0.0235962, Final residual = 0.00174608, No Iterations 7
smoothSolver:  Solving for Uz, Initial residual = 0.0212029, Final residual = 0.00212024, No Iterations 6
doubleDiagonalPCG:  Solving for p, Initial residual = 0.00973498, Final residual = 9.67629e-05, No Iterations 2379
time step continuity errors : sum local = 0.000188546, global = -9.62926e-06, cumulative = -0.000535477
smoothSolver:  Solving for omega, Initial residual = 0.000167294, Final residual = 1.18538e-05, No Iterations 2
smoothSolver:  Solving for k, Initial residual = 0.00201955, Final residual = 0.000149965, No Iterations 2
ExecutionTime = 841.879 s  ClockTime = 842 s

forceCoeffs forceCoeffs1 write:
    Cm    = 0.159746
    Cd    = 0.40625
    Cl    = 0.0615703
    Cl(f) = 0.190531
    Cl(r) = -0.128961

Time = 43s

smoothSolver:  Solving for Ux, Initial residual = 0.00101367, Final residual = 9.21008e-05, No Iterations 7
smoothSolver:  Solving for Uy, Initial residual = 0.0226165, Final residual = 0.00167759, No Iterations 7
smoothSolver:  Solving for Uz, Initial residual = 0.0208564, Final residual = 0.00153279, No Iterations 7
doubleDiagonalPCG:  Solving for p, Initial residual = 0.00944962, Final residual = 9.41073e-05, No Iterations 2316
time step continuity errors : sum local = 0.000182809, global = -5.60955e-06, cumulative = -0.000541086
smoothSolver:  Solving for omega, Initial residual = 0.000162112, Final residual = 1.14556e-05, No Iterations 2
smoothSolver:  Solving for k, Initial residual = 0.00199734, Final residual = 0.00014853, No Iterations 2
ExecutionTime = 855.323 s  ClockTime = 855 s

forceCoeffs forceCoeffs1 write:
    Cm    = 0.160315
    Cd    = 0.406512
    Cl    = 0.0608121
    Cl(f) = 0.190721
    Cl(r) = -0.129909

Time = 44s

smoothSolver:  Solving for Ux, Initial residual = 0.000989134, Final residual = 9.04873e-05, No Iterations 7
smoothSolver:  Solving for Uy, Initial residual = 0.0214876, Final residual = 0.00161189, No Iterations 7
smoothSolver:  Solving for Uz, Initial residual = 0.0202878, Final residual = 0.0015003, No Iterations 7
doubleDiagonalPCG:  Solving for p, Initial residual = 0.00915571, Final residual = 9.13656e-05, No Iterations 2306
time step continuity errors : sum local = 0.000177052, global = -1.73029e-06, cumulative = -0.000542817
smoothSolver:  Solving for omega, Initial residual = 0.000157391, Final residual = 1.10824e-05, No Iterations 2
smoothSolver:  Solving for k, Initial residual = 0.00197571, Final residual = 0.000147035, No Iterations 2
ExecutionTime = 868.491 s  ClockTime = 868 s

forceCoeffs forceCoeffs1 write:
    Cm    = 0.160864
    Cd    = 0.406957
    Cl    = 0.0602607
    Cl(f) = 0.190994
    Cl(r) = -0.130734

Time = 45s

smoothSolver:  Solving for Ux, Initial residual = 0.000958664, Final residual = 8.889e-05, No Iterations 7
smoothSolver:  Solving for Uy, Initial residual = 0.0203212, Final residual = 0.00154904, No Iterations 7
smoothSolver:  Solving for Uz, Initial residual = 0.0196653, Final residual = 0.00146735, No Iterations 7
doubleDiagonalPCG:  Solving for p, Initial residual = 0.00887079, Final residual = 8.85289e-05, No Iterations 2417
time step continuity errors : sum local = 0.000171217, global = 1.56179e-06, cumulative = -0.000541255
smoothSolver:  Solving for omega, Initial residual = 0.000152686, Final residual = 1.07254e-05, No Iterations 2
smoothSolver:  Solving for k, Initial residual = 0.00195092, Final residual = 0.000144987, No Iterations 2
ExecutionTime = 882.258 s  ClockTime = 882 s

forceCoeffs forceCoeffs1 write:
    Cm    = 0.16133
    Cd    = 0.407571
    Cl    = 0.0599675
    Cl(f) = 0.191314
    Cl(r) = -0.131346

Time = 46s

smoothSolver:  Solving for Ux, Initial residual = 0.000928227, Final residual = 8.73918e-05, No Iterations 7
smoothSolver:  Solving for Uy, Initial residual = 0.0192292, Final residual = 0.00149058, No Iterations 7
smoothSolver:  Solving for Uz, Initial residual = 0.018936, Final residual = 0.00143072, No Iterations 7
doubleDiagonalPCG:  Solving for p, Initial residual = 0.00856581, Final residual = 8.5636e-05, No Iterations 2478
time step continuity errors : sum local = 0.000165335, global = 3.39511e-06, cumulative = -0.00053786
smoothSolver:  Solving for omega, Initial residual = 0.000147989, Final residual = 1.03575e-05, No Iterations 2
smoothSolver:  Solving for k, Initial residual = 0.00191543, Final residual = 0.000141988, No Iterations 2
ExecutionTime = 896.341 s  ClockTime = 896 s

forceCoeffs forceCoeffs1 write:
    Cm    = 0.161666
    Cd    = 0.408098
    Cl    = 0.059979
    Cl(f) = 0.191656
    Cl(r) = -0.131677

Time = 47s

smoothSolver:  Solving for Ux, Initial residual = 0.000901241, Final residual = 8.6659e-05, No Iterations 7
smoothSolver:  Solving for Uy, Initial residual = 0.0183199, Final residual = 0.00143735, No Iterations 7
smoothSolver:  Solving for Uz, Initial residual = 0.0181071, Final residual = 0.00138367, No Iterations 7
doubleDiagonalPCG:  Solving for p, Initial residual = 0.00825773, Final residual = 8.17517e-05, No Iterations 2549
time step continuity errors : sum local = 0.000157631, global = 4.36645e-06, cumulative = -0.000533493
smoothSolver:  Solving for omega, Initial residual = 0.000143065, Final residual = 9.97776e-06, No Iterations 2
smoothSolver:  Solving for k, Initial residual = 0.00186552, Final residual = 0.000138547, No Iterations 2
ExecutionTime = 910.708 s  ClockTime = 910 s

forceCoeffs forceCoeffs1 write:
    Cm    = 0.161803
    Cd    = 0.408477
    Cl    = 0.0599675
    Cl(f) = 0.191787
    Cl(r) = -0.131819

Time = 48s

smoothSolver:  Solving for Ux, Initial residual = 0.000877779, Final residual = 8.61179e-05, No Iterations 7
smoothSolver:  Solving for Uy, Initial residual = 0.0176463, Final residual = 0.00140388, No Iterations 7
smoothSolver:  Solving for Uz, Initial residual = 0.0172726, Final residual = 0.00133873, No Iterations 7
doubleDiagonalPCG:  Solving for p, Initial residual = 0.00794115, Final residual = 7.89523e-05, No Iterations 2549
time step continuity errors : sum local = 0.000152103, global = 4.00222e-06, cumulative = -0.000529491
smoothSolver:  Solving for omega, Initial residual = 0.000137857, Final residual = 9.62538e-06, No Iterations 2
smoothSolver:  Solving for k, Initial residual = 0.00180592, Final residual = 0.000134943, No Iterations 2
ExecutionTime = 925.389 s  ClockTime = 925 s

forceCoeffs forceCoeffs1 write:
    Cm    = 0.16182
    Cd    = 0.408628
    Cl    = 0.0599657
    Cl(f) = 0.191803
    Cl(r) = -0.131837

Time = 49s

smoothSolver:  Solving for Ux, Initial residual = 0.000857276, Final residual = 8.51001e-05, No Iterations 7
smoothSolver:  Solving for Uy, Initial residual = 0.0171425, Final residual = 0.00137346, No Iterations 7
smoothSolver:  Solving for Uz, Initial residual = 0.0164169, Final residual = 0.00129354, No Iterations 7
doubleDiagonalPCG:  Solving for p, Initial residual = 0.00765852, Final residual = 7.61285e-05, No Iterations 2384
time step continuity errors : sum local = 0.000146583, global = 2.03457e-06, cumulative = -0.000527457
smoothSolver:  Solving for omega, Initial residual = 0.000132596, Final residual = 9.30057e-06, No Iterations 2
smoothSolver:  Solving for k, Initial residual = 0.00174393, Final residual = 0.000131114, No Iterations 2
ExecutionTime = 939.091 s  ClockTime = 939 s

forceCoeffs forceCoeffs1 write:
    Cm    = 0.16162
    Cd    = 0.408598
    Cl    = 0.0599966
    Cl(f) = 0.191618
    Cl(r) = -0.131622

Time = 50s

smoothSolver:  Solving for Ux, Initial residual = 0.000836653, Final residual = 8.36373e-05, No Iterations 7
smoothSolver:  Solving for Uy, Initial residual = 0.0167407, Final residual = 0.00134278, No Iterations 7
smoothSolver:  Solving for Uz, Initial residual = 0.0156144, Final residual = 0.00124719, No Iterations 7
doubleDiagonalPCG:  Solving for p, Initial residual = 0.00740434, Final residual = 7.37385e-05, No Iterations 2211
time step continuity errors : sum local = 0.000141903, global = -9.52508e-08, cumulative = -0.000527552
smoothSolver:  Solving for omega, Initial residual = 0.000127788, Final residual = 8.97664e-06, No Iterations 2
smoothSolver:  Solving for k, Initial residual = 0.00168536, Final residual = 0.000127275, No Iterations 2
ExecutionTime = 951.862 s  ClockTime = 952 s

forceCoeffs forceCoeffs1 write:
    Cm    = 0.161294
    Cd    = 0.408357
    Cl    = 0.0602107
    Cl(f) = 0.191399
    Cl(r) = -0.131189

Time = 51s

smoothSolver:  Solving for Ux, Initial residual = 0.000816411, Final residual = 6.14093e-05, No Iterations 8
smoothSolver:  Solving for Uy, Initial residual = 0.0163161, Final residual = 0.00129251, No Iterations 7
smoothSolver:  Solving for Uz, Initial residual = 0.0149515, Final residual = 0.00119472, No Iterations 7
doubleDiagonalPCG:  Solving for p, Initial residual = 0.00714886, Final residual = 7.11917e-05, No Iterations 2182
time step continuity errors : sum local = 0.000136924, global = -3.03408e-06, cumulative = -0.000530586
smoothSolver:  Solving for omega, Initial residual = 0.000123432, Final residual = 8.65204e-06, No Iterations 2
smoothSolver:  Solving for k, Initial residual = 0.00163251, Final residual = 0.00012369, No Iterations 2
ExecutionTime = 964.574 s  ClockTime = 964 s

forceCoeffs forceCoeffs1 write:
    Cm    = 0.160751
    Cd    = 0.408101
    Cl    = 0.0604999
    Cl(f) = 0.191001
    Cl(r) = -0.130501

Time = 52s

smoothSolver:  Solving for Ux, Initial residual = 0.000791995, Final residual = 5.96873e-05, No Iterations 8
smoothSolver:  Solving for Uy, Initial residual = 0.0158525, Final residual = 0.00123146, No Iterations 7
smoothSolver:  Solving for Uz, Initial residual = 0.0144269, Final residual = 0.00114417, No Iterations 7
doubleDiagonalPCG:  Solving for p, Initial residual = 0.00690101, Final residual = 6.86181e-05, No Iterations 2334
time step continuity errors : sum local = 0.00013187, global = -6.37856e-06, cumulative = -0.000536965
smoothSolver:  Solving for omega, Initial residual = 0.000119099, Final residual = 8.33718e-06, No Iterations 2
smoothSolver:  Solving for k, Initial residual = 0.00158581, Final residual = 0.000120491, No Iterations 2
ExecutionTime = 977.868 s  ClockTime = 978 s

forceCoeffs forceCoeffs1 write:
    Cm    = 0.160167
    Cd    = 0.407832
    Cl    = 0.0610191
    Cl(f) = 0.190676
    Cl(r) = -0.129657

Time = 53s

smoothSolver:  Solving for Ux, Initial residual = 0.000765956, Final residual = 5.71863e-05, No Iterations 8
smoothSolver:  Solving for Uy, Initial residual = 0.0153785, Final residual = 0.00116758, No Iterations 7
smoothSolver:  Solving for Uz, Initial residual = 0.0139824, Final residual = 0.00109924, No Iterations 7
doubleDiagonalPCG:  Solving for p, Initial residual = 0.00666428, Final residual = 6.63922e-05, No Iterations 2710
time step continuity errors : sum local = 0.000127451, global = -7.26278e-06, cumulative = -0.000544227
smoothSolver:  Solving for omega, Initial residual = 0.00011483, Final residual = 8.04556e-06, No Iterations 2
smoothSolver:  Solving for k, Initial residual = 0.00154318, Final residual = 0.000117641, No Iterations 2
ExecutionTime = 992.974 s  ClockTime = 993 s

forceCoeffs forceCoeffs1 write:
    Cm    = 0.159425
    Cd    = 0.4076
    Cl    = 0.0616818
    Cl(f) = 0.190266
    Cl(r) = -0.128584

Time = 54s

smoothSolver:  Solving for Ux, Initial residual = 0.000736987, Final residual = 7.23038e-05, No Iterations 7
smoothSolver:  Solving for Uy, Initial residual = 0.0149057, Final residual = 0.00111167, No Iterations 7
smoothSolver:  Solving for Uz, Initial residual = 0.0136142, Final residual = 0.0010558, No Iterations 7
doubleDiagonalPCG:  Solving for p, Initial residual = 0.00648083, Final residual = 6.455e-05, No Iterations 2987
time step continuity errors : sum local = 0.000123701, global = -5.41713e-06, cumulative = -0.000549644
smoothSolver:  Solving for omega, Initial residual = 0.000110938, Final residual = 7.76977e-06, No Iterations 2
smoothSolver:  Solving for k, Initial residual = 0.00150439, Final residual = 0.000115148, No Iterations 2
ExecutionTime = 1009.43 s  ClockTime = 1009 s

forceCoeffs forceCoeffs1 write:
    Cm    = 0.158668
    Cd    = 0.407184
    Cl    = 0.0627688
    Cl(f) = 0.190053
    Cl(r) = -0.127284

Time = 55s

smoothSolver:  Solving for Ux, Initial residual = 0.000710936, Final residual = 6.82155e-05, No Iterations 7
smoothSolver:  Solving for Uy, Initial residual = 0.0144975, Final residual = 0.00106717, No Iterations 7
smoothSolver:  Solving for Uz, Initial residual = 0.0132397, Final residual = 0.00101953, No Iterations 7
doubleDiagonalPCG:  Solving for p, Initial residual = 0.006325, Final residual = 6.31487e-05, No Iterations 2985
time step continuity errors : sum local = 0.000120764, global = -4.73481e-06, cumulative = -0.000554379
smoothSolver:  Solving for omega, Initial residual = 0.00010731, Final residual = 7.51092e-06, No Iterations 2
smoothSolver:  Solving for k, Initial residual = 0.00147009, Final residual = 0.000112932, No Iterations 2
ExecutionTime = 1026.03 s  ClockTime = 1026 s

forceCoeffs forceCoeffs1 write:
    Cm    = 0.157967
    Cd    = 0.40683
    Cl    = 0.0639219
    Cl(f) = 0.189928
    Cl(r) = -0.126006

Time = 56s

smoothSolver:  Solving for Ux, Initial residual = 0.000684275, Final residual = 6.42596e-05, No Iterations 7
smoothSolver:  Solving for Uy, Initial residual = 0.0141486, Final residual = 0.00141246, No Iterations 6
smoothSolver:  Solving for Uz, Initial residual = 0.0128738, Final residual = 0.000989859, No Iterations 7
doubleDiagonalPCG:  Solving for p, Initial residual = 0.00616293, Final residual = 6.15013e-05, No Iterations 2575
time step continuity errors : sum local = 0.000117405, global = -5.50501e-06, cumulative = -0.000559884
smoothSolver:  Solving for omega, Initial residual = 0.000103774, Final residual = 7.26465e-06, No Iterations 2
smoothSolver:  Solving for k, Initial residual = 0.00143606, Final residual = 0.000110699, No Iterations 2
ExecutionTime = 1040.37 s  ClockTime = 1040 s

forceCoeffs forceCoeffs1 write:
    Cm    = 0.15742
    Cd    = 0.406565
    Cl    = 0.064877
    Cl(f) = 0.189859
    Cl(r) = -0.124982

Time = 57s

smoothSolver:  Solving for Ux, Initial residual = 0.000659373, Final residual = 6.05455e-05, No Iterations 7
smoothSolver:  Solving for Uy, Initial residual = 0.0138989, Final residual = 0.00137196, No Iterations 6
smoothSolver:  Solving for Uz, Initial residual = 0.0125262, Final residual = 0.000955629, No Iterations 7
doubleDiagonalPCG:  Solving for p, Initial residual = 0.00603378, Final residual = 6.03156e-05, No Iterations 2522
time step continuity errors : sum local = 0.000114993, global = -4.93515e-06, cumulative = -0.000564819
smoothSolver:  Solving for omega, Initial residual = 0.000100453, Final residual = 7.04686e-06, No Iterations 2
smoothSolver:  Solving for k, Initial residual = 0.00140279, Final residual = 0.000108595, No Iterations 2
ExecutionTime = 1054.52 s  ClockTime = 1054 s

forceCoeffs forceCoeffs1 write:
    Cm    = 0.156928
    Cd    = 0.406244
    Cl    = 0.0655691
    Cl(f) = 0.189712
    Cl(r) = -0.124143

Time = 58s

smoothSolver:  Solving for Ux, Initial residual = 0.000636758, Final residual = 5.70013e-05, No Iterations 7
smoothSolver:  Solving for Uy, Initial residual = 0.0136382, Final residual = 0.00132825, No Iterations 6
smoothSolver:  Solving for Uz, Initial residual = 0.012286, Final residual = 0.00092318, No Iterations 7
doubleDiagonalPCG:  Solving for p, Initial residual = 0.00594145, Final residual = 5.9074e-05, No Iterations 2289
time step continuity errors : sum local = 0.000112481, global = -4.15254e-06, cumulative = -0.000568972
smoothSolver:  Solving for omega, Initial residual = 9.73663e-05, Final residual = 6.82682e-06, No Iterations 2
smoothSolver:  Solving for k, Initial residual = 0.0013706, Final residual = 0.000106271, No Iterations 2
ExecutionTime = 1067.36 s  ClockTime = 1067 s

forceCoeffs forceCoeffs1 write:
    Cm    = 0.156585
    Cd    = 0.406055
    Cl    = 0.0660034
    Cl(f) = 0.189587
    Cl(r) = -0.123584

Time = 59s

smoothSolver:  Solving for Ux, Initial residual = 0.000615222, Final residual = 5.40505e-05, No Iterations 7
smoothSolver:  Solving for Uy, Initial residual = 0.0133747, Final residual = 0.00128896, No Iterations 6
smoothSolver:  Solving for Uz, Initial residual = 0.0121846, Final residual = 0.0012168, No Iterations 6
doubleDiagonalPCG:  Solving for p, Initial residual = 0.00584261, Final residual = 5.82257e-05, No Iterations 2238
time step continuity errors : sum local = 0.00011074, global = -2.95659e-06, cumulative = -0.000571929
smoothSolver:  Solving for omega, Initial residual = 9.42338e-05, Final residual = 6.59795e-06, No Iterations 2
smoothSolver:  Solving for k, Initial residual = 0.00134298, Final residual = 0.00010396, No Iterations 2
ExecutionTime = 1079.96 s  ClockTime = 1080 s

forceCoeffs forceCoeffs1 write:
    Cm    = 0.156397
    Cd    = 0.406006
    Cl    = 0.0660248
    Cl(f) = 0.18941
    Cl(r) = -0.123385

Time = 60s

smoothSolver:  Solving for Ux, Initial residual = 0.000594123, Final residual = 5.21257e-05, No Iterations 7
smoothSolver:  Solving for Uy, Initial residual = 0.0131068, Final residual = 0.00124571, No Iterations 6
smoothSolver:  Solving for Uz, Initial residual = 0.0121361, Final residual = 0.00120134, No Iterations 6
doubleDiagonalPCG:  Solving for p, Initial residual = 0.00572215, Final residual = 5.67978e-05, No Iterations 2193
time step continuity errors : sum local = 0.000107915, global = -2.01066e-06, cumulative = -0.000573939
smoothSolver:  Solving for omega, Initial residual = 9.12348e-05, Final residual = 6.38839e-06, No Iterations 2
smoothSolver:  Solving for k, Initial residual = 0.00131823, Final residual = 0.000101811, No Iterations 2
ExecutionTime = 1092.32 s  ClockTime = 1092 s

forceCoeffs forceCoeffs1 write:
    Cm    = 0.15642
    Cd    = 0.406297
    Cl    = 0.0658797
    Cl(f) = 0.18936
    Cl(r) = -0.12348

Time = 61s

smoothSolver:  Solving for Ux, Initial residual = 0.000572567, Final residual = 5.05944e-05, No Iterations 7
smoothSolver:  Solving for Uy, Initial residual = 0.0127599, Final residual = 0.00120327, No Iterations 6
smoothSolver:  Solving for Uz, Initial residual = 0.0120184, Final residual = 0.00118567, No Iterations 6
doubleDiagonalPCG:  Solving for p, Initial residual = 0.00556322, Final residual = 5.52855e-05, No Iterations 2203
time step continuity errors : sum local = 0.000104958, global = -1.51262e-06, cumulative = -0.000575452
smoothSolver:  Solving for omega, Initial residual = 8.83982e-05, Final residual = 6.18333e-06, No Iterations 2
smoothSolver:  Solving for k, Initial residual = 0.00129103, Final residual = 9.97453e-05, No Iterations 2
ExecutionTime = 1104.75 s  ClockTime = 1105 s

forceCoeffs forceCoeffs1 write:
    Cm    = 0.156496
    Cd    = 0.406717
    Cl    = 0.0655436
    Cl(f) = 0.189268
    Cl(r) = -0.123724

Time = 62s

smoothSolver:  Solving for Ux, Initial residual = 0.000549772, Final residual = 4.90569e-05, No Iterations 7
smoothSolver:  Solving for Uy, Initial residual = 0.0123272, Final residual = 0.00116694, No Iterations 6
smoothSolver:  Solving for Uz, Initial residual = 0.0117885, Final residual = 0.00117589, No Iterations 6
doubleDiagonalPCG:  Solving for p, Initial residual = 0.00535075, Final residual = 5.35043e-05, No Iterations 2193
time step continuity errors : sum local = 0.000101504, global = -1.20074e-06, cumulative = -0.000576653
smoothSolver:  Solving for omega, Initial residual = 8.56602e-05, Final residual = 6.00186e-06, No Iterations 2
smoothSolver:  Solving for k, Initial residual = 0.00125806, Final residual = 9.75783e-05, No Iterations 2
ExecutionTime = 1117.06 s  ClockTime = 1117 s

forceCoeffs forceCoeffs1 write:
    Cm    = 0.156654
    Cd    = 0.407361
    Cl    = 0.0653374
    Cl(f) = 0.189323
    Cl(r) = -0.123985

Time = 63s

smoothSolver:  Solving for Ux, Initial residual = 0.000528859, Final residual = 4.79304e-05, No Iterations 7
smoothSolver:  Solving for Uy, Initial residual = 0.0118425, Final residual = 0.00113108, No Iterations 6
smoothSolver:  Solving for Uz, Initial residual = 0.0114181, Final residual = 0.000857455, No Iterations 7
doubleDiagonalPCG:  Solving for p, Initial residual = 0.00513623, Final residual = 5.09809e-05, No Iterations 2125
time step continuity errors : sum local = 9.66688e-05, global = -7.34175e-07, cumulative = -0.000577387
smoothSolver:  Solving for omega, Initial residual = 8.2935e-05, Final residual = 5.8156e-06, No Iterations 2
smoothSolver:  Solving for k, Initial residual = 0.00122368, Final residual = 9.52406e-05, No Iterations 2
ExecutionTime = 1129.27 s  ClockTime = 1129 s

forceCoeffs forceCoeffs1 write:
    Cm    = 0.156761
    Cd    = 0.407952
    Cl    = 0.0651179
    Cl(f) = 0.18932
    Cl(r) = -0.124202

Time = 64s

smoothSolver:  Solving for Ux, Initial residual = 0.00051004, Final residual = 4.71289e-05, No Iterations 7
smoothSolver:  Solving for Uy, Initial residual = 0.011391, Final residual = 0.00109884, No Iterations 6
smoothSolver:  Solving for Uz, Initial residual = 0.010919, Final residual = 0.000826155, No Iterations 7
doubleDiagonalPCG:  Solving for p, Initial residual = 0.00490234, Final residual = 4.88889e-05, No Iterations 2165
time step continuity errors : sum local = 9.26757e-05, global = -1.21091e-08, cumulative = -0.000577399
smoothSolver:  Solving for omega, Initial residual = 8.0566e-05, Final residual = 5.64373e-06, No Iterations 2
smoothSolver:  Solving for k, Initial residual = 0.00119462, Final residual = 9.2975e-05, No Iterations 2
ExecutionTime = 1141.5 s  ClockTime = 1141 s

forceCoeffs forceCoeffs1 write:
    Cm    = 0.156857
    Cd    = 0.408511
    Cl    = 0.0650004
    Cl(f) = 0.189357
    Cl(r) = -0.124357

Time = 65s

smoothSolver:  Solving for Ux, Initial residual = 0.000494387, Final residual = 4.62733e-05, No Iterations 7
smoothSolver:  Solving for Uy, Initial residual = 0.0109363, Final residual = 0.00106743, No Iterations 6
smoothSolver:  Solving for Uz, Initial residual = 0.0104112, Final residual = 0.000794741, No Iterations 7
doubleDiagonalPCG:  Solving for p, Initial residual = 0.00471744, Final residual = 4.67094e-05, No Iterations 2302
time step continuity errors : sum local = 8.85398e-05, global = 1.90389e-06, cumulative = -0.000575495
smoothSolver:  Solving for omega, Initial residual = 7.8341e-05, Final residual = 5.49819e-06, No Iterations 2
smoothSolver:  Solving for k, Initial residual = 0.00116644, Final residual = 9.09507e-05, No Iterations 2
ExecutionTime = 1154.5 s  ClockTime = 1154 s

forceCoeffs forceCoeffs1 write:
    Cm    = 0.156945
    Cd    = 0.408955
    Cl    = 0.0648659
    Cl(f) = 0.189378
    Cl(r) = -0.124512

Time = 66s

smoothSolver:  Solving for Ux, Initial residual = 0.00048001, Final residual = 4.52339e-05, No Iterations 7
smoothSolver:  Solving for Uy, Initial residual = 0.010494, Final residual = 0.00103817, No Iterations 6
smoothSolver:  Solving for Uz, Initial residual = 0.00999372, Final residual = 0.00076694, No Iterations 7
doubleDiagonalPCG:  Solving for p, Initial residual = 0.00456002, Final residual = 4.55432e-05, No Iterations 2551
time step continuity errors : sum local = 8.63446e-05, global = 4.00422e-06, cumulative = -0.000571491
smoothSolver:  Solving for omega, Initial residual = 7.66325e-05, Final residual = 5.37205e-06, No Iterations 2
smoothSolver:  Solving for k, Initial residual = 0.00113785, Final residual = 8.88978e-05, No Iterations 2
ExecutionTime = 1168.71 s  ClockTime = 1169 s

forceCoeffs forceCoeffs1 write:
    Cm    = 0.157028
    Cd    = 0.409287
    Cl    = 0.0646411
    Cl(f) = 0.189349
    Cl(r) = -0.124708

Time = 67s

smoothSolver:  Solving for Ux, Initial residual = 0.000467152, Final residual = 4.43264e-05, No Iterations 7
smoothSolver:  Solving for Uy, Initial residual = 0.0100632, Final residual = 0.000748845, No Iterations 7
smoothSolver:  Solving for Uz, Initial residual = 0.00962768, Final residual = 0.000739121, No Iterations 7
doubleDiagonalPCG:  Solving for p, Initial residual = 0.0044591, Final residual = 4.45621e-05, No Iterations 2690
time step continuity errors : sum local = 8.45361e-05, global = 5.10145e-06, cumulative = -0.000566389
smoothSolver:  Solving for omega, Initial residual = 7.48972e-05, Final residual = 5.24231e-06, No Iterations 2
smoothSolver:  Solving for k, Initial residual = 0.00111052, Final residual = 8.67717e-05, No Iterations 2
ExecutionTime = 1183.72 s  ClockTime = 1184 s

forceCoeffs forceCoeffs1 write:
    Cm    = 0.157127
    Cd    = 0.40958
    Cl    = 0.0642698
    Cl(f) = 0.189262
    Cl(r) = -0.124992

Time = 68s

smoothSolver:  Solving for Ux, Initial residual = 0.000457317, Final residual = 4.36546e-05, No Iterations 7
smoothSolver:  Solving for Uy, Initial residual = 0.00969639, Final residual = 0.000726713, No Iterations 7
smoothSolver:  Solving for Uz, Initial residual = 0.00932257, Final residual = 0.000714095, No Iterations 7
doubleDiagonalPCG:  Solving for p, Initial residual = 0.00436351, Final residual = 4.35785e-05, No Iterations 2699
time step continuity errors : sum local = 8.27532e-05, global = 4.81456e-06, cumulative = -0.000561575
smoothSolver:  Solving for omega, Initial residual = 7.35757e-05, Final residual = 5.12105e-06, No Iterations 2
smoothSolver:  Solving for k, Initial residual = 0.0010818, Final residual = 8.46058e-05, No Iterations 2
ExecutionTime = 1198.8 s  ClockTime = 1199 s

forceCoeffs forceCoeffs1 write:
    Cm    = 0.157278
    Cd    = 0.409904
    Cl    = 0.0638447
    Cl(f) = 0.189201
    Cl(r) = -0.125356

Time = 69s

smoothSolver:  Solving for Ux, Initial residual = 0.000447948, Final residual = 4.27958e-05, No Iterations 7
smoothSolver:  Solving for Uy, Initial residual = 0.00944678, Final residual = 0.000707175, No Iterations 7
smoothSolver:  Solving for Uz, Initial residual = 0.00903063, Final residual = 0.000682191, No Iterations 7
doubleDiagonalPCG:  Solving for p, Initial residual = 0.00426937, Final residual = 4.24842e-05, No Iterations 2677
time step continuity errors : sum local = 8.07651e-05, global = 4.11303e-06, cumulative = -0.000557462
smoothSolver:  Solving for omega, Initial residual = 7.20547e-05, Final residual = 4.99688e-06, No Iterations 2
smoothSolver:  Solving for k, Initial residual = 0.00105229, Final residual = 8.23764e-05, No Iterations 2
ExecutionTime = 1213.7 s  ClockTime = 1214 s

forceCoeffs forceCoeffs1 write:
    Cm    = 0.157435
    Cd    = 0.410269
    Cl    = 0.0634372
    Cl(f) = 0.189154
    Cl(r) = -0.125716

Time = 70s

smoothSolver:  Solving for Ux, Initial residual = 0.000438452, Final residual = 4.13211e-05, No Iterations 7
smoothSolver:  Solving for Uy, Initial residual = 0.00921418, Final residual = 0.000687968, No Iterations 7
smoothSolver:  Solving for Uz, Initial residual = 0.00873921, Final residual = 0.00064774, No Iterations 7
doubleDiagonalPCG:  Solving for p, Initial residual = 0.00416894, Final residual = 4.14801e-05, No Iterations 2575
time step continuity errors : sum local = 7.89339e-05, global = 3.07343e-06, cumulative = -0.000554388
smoothSolver:  Solving for omega, Initial residual = 7.05385e-05, Final residual = 4.90011e-06, No Iterations 2
smoothSolver:  Solving for k, Initial residual = 0.00102249, Final residual = 8.01829e-05, No Iterations 2
ExecutionTime = 1227.96 s  ClockTime = 1228 s

forceCoeffs forceCoeffs1 write:
    Cm    = 0.157591
    Cd    = 0.410596
    Cl    = 0.0631983
    Cl(f) = 0.18919
    Cl(r) = -0.125992

Time = 71s

smoothSolver:  Solving for Ux, Initial residual = 0.000427703, Final residual = 3.93731e-05, No Iterations 7
smoothSolver:  Solving for Uy, Initial residual = 0.00899966, Final residual = 0.000664323, No Iterations 7
smoothSolver:  Solving for Uz, Initial residual = 0.00846636, Final residual = 0.000833856, No Iterations 6
doubleDiagonalPCG:  Solving for p, Initial residual = 0.00407293, Final residual = 4.04383e-05, No Iterations 2540
time step continuity errors : sum local = 7.7018e-05, global = 1.6014e-06, cumulative = -0.000552787
smoothSolver:  Solving for omega, Initial residual = 6.89744e-05, Final residual = 4.79247e-06, No Iterations 2
smoothSolver:  Solving for k, Initial residual = 0.000993573, Final residual = 7.80709e-05, No Iterations 2
ExecutionTime = 1242.09 s  ClockTime = 1242 s

forceCoeffs forceCoeffs1 write:
    Cm    = 0.157633
    Cd    = 0.41082
    Cl    = 0.0631011
    Cl(f) = 0.189184
    Cl(r) = -0.126083

Time = 72s

smoothSolver:  Solving for Ux, Initial residual = 0.000413541, Final residual = 3.70805e-05, No Iterations 7
smoothSolver:  Solving for Uy, Initial residual = 0.00877027, Final residual = 0.000861456, No Iterations 6
smoothSolver:  Solving for Uz, Initial residual = 0.00820855, Final residual = 0.000798036, No Iterations 6
doubleDiagonalPCG:  Solving for p, Initial residual = 0.00396528, Final residual = 3.96064e-05, No Iterations 2476
time step continuity errors : sum local = 7.5473e-05, global = -1.28807e-07, cumulative = -0.000552916
smoothSolver:  Solving for omega, Initial residual = 6.71571e-05, Final residual = 4.66019e-06, No Iterations 2
smoothSolver:  Solving for k, Initial residual = 0.00096579, Final residual = 7.60646e-05, No Iterations 2
ExecutionTime = 1255.97 s  ClockTime = 1256 s

forceCoeffs forceCoeffs1 write:
    Cm    = 0.157616
    Cd    = 0.410914
    Cl    = 0.0632938
    Cl(f) = 0.189263
    Cl(r) = -0.125969

Time = 73s

smoothSolver:  Solving for Ux, Initial residual = 0.000396143, Final residual = 3.45444e-05, No Iterations 7
smoothSolver:  Solving for Uy, Initial residual = 0.00854963, Final residual = 0.000819395, No Iterations 6
smoothSolver:  Solving for Uz, Initial residual = 0.00792938, Final residual = 0.000760158, No Iterations 6
doubleDiagonalPCG:  Solving for p, Initial residual = 0.00387305, Final residual = 3.86926e-05, No Iterations 2501
time step continuity errors : sum local = 7.37606e-05, global = -1.90407e-06, cumulative = -0.00055482
smoothSolver:  Solving for omega, Initial residual = 6.50045e-05, Final residual = 4.53108e-06, No Iterations 2
smoothSolver:  Solving for k, Initial residual = 0.00093752, Final residual = 7.41409e-05, No Iterations 2
ExecutionTime = 1269.96 s  ClockTime = 1270 s

forceCoeffs forceCoeffs1 write:
    Cm    = 0.157556
    Cd    = 0.411011
    Cl    = 0.06366
    Cl(f) = 0.189386
    Cl(r) = -0.125726

Time = 74s

smoothSolver:  Solving for Ux, Initial residual = 0.000377847, Final residual = 3.21562e-05, No Iterations 7
smoothSolver:  Solving for Uy, Initial residual = 0.008281, Final residual = 0.000776781, No Iterations 6
smoothSolver:  Solving for Uz, Initial residual = 0.00764734, Final residual = 0.000724835, No Iterations 6
doubleDiagonalPCG:  Solving for p, Initial residual = 0.00377515, Final residual = 3.75219e-05, No Iterations 2407
time step continuity errors : sum local = 7.15386e-05, global = -3.06339e-06, cumulative = -0.000557883
smoothSolver:  Solving for omega, Initial residual = 6.317e-05, Final residual = 4.413e-06, No Iterations 2
smoothSolver:  Solving for k, Initial residual = 0.000909955, Final residual = 7.22855e-05, No Iterations 2
ExecutionTime = 1290.57 s  ClockTime = 1290 s

forceCoeffs forceCoeffs1 write:
    Cm    = 0.157503
    Cd    = 0.411075
    Cl    = 0.0642346
    Cl(f) = 0.18962
    Cl(r) = -0.125386

Time = 75s

smoothSolver:  Solving for Ux, Initial residual = 0.000361208, Final residual = 3.03966e-05, No Iterations 7
smoothSolver:  Solving for Uy, Initial residual = 0.00795964, Final residual = 0.000726857, No Iterations 6
smoothSolver:  Solving for Uz, Initial residual = 0.00738539, Final residual = 0.000689452, No Iterations 6
doubleDiagonalPCG:  Solving for p, Initial residual = 0.00367596, Final residual = 3.65995e-05, No Iterations 2418
time step continuity errors : sum local = 6.97751e-05, global = -3.87316e-06, cumulative = -0.000561756
smoothSolver:  Solving for omega, Initial residual = 6.1452e-05, Final residual = 4.29419e-06, No Iterations 2
smoothSolver:  Solving for k, Initial residual = 0.000886491, Final residual = 7.05143e-05, No Iterations 2
ExecutionTime = 1304.02 s  ClockTime = 1304 s

forceCoeffs forceCoeffs1 write:
    Cm    = 0.15748
    Cd    = 0.411238
    Cl    = 0.0647885
    Cl(f) = 0.189874
    Cl(r) = -0.125086

Time = 76s

smoothSolver:  Solving for Ux, Initial residual = 0.000347589, Final residual = 2.93833e-05, No Iterations 7
smoothSolver:  Solving for Uy, Initial residual = 0.00766778, Final residual = 0.000685337, No Iterations 6
smoothSolver:  Solving for Uz, Initial residual = 0.00719755, Final residual = 0.000657545, No Iterations 6
doubleDiagonalPCG:  Solving for p, Initial residual = 0.00358971, Final residual = 3.58509e-05, No Iterations 2402
time step continuity errors : sum local = 6.83348e-05, global = -4.43259e-06, cumulative = -0.000566189
smoothSolver:  Solving for omega, Initial residual = 5.98386e-05, Final residual = 4.1764e-06, No Iterations 2
smoothSolver:  Solving for k, Initial residual = 0.00086636, Final residual = 6.89519e-05, No Iterations 2
ExecutionTime = 1317.43 s  ClockTime = 1317 s

forceCoeffs forceCoeffs1 write:
    Cm    = 0.157522
    Cd    = 0.411465
    Cl    = 0.0653523
    Cl(f) = 0.190198
    Cl(r) = -0.124846

Time = 77s

smoothSolver:  Solving for Ux, Initial residual = 0.00033717, Final residual = 2.86568e-05, No Iterations 7
smoothSolver:  Solving for Uy, Initial residual = 0.00744874, Final residual = 0.000659688, No Iterations 6
smoothSolver:  Solving for Uz, Initial residual = 0.00705222, Final residual = 0.000629226, No Iterations 6
doubleDiagonalPCG:  Solving for p, Initial residual = 0.00350683, Final residual = 3.50516e-05, No Iterations 2295
time step continuity errors : sum local = 6.67975e-05, global = -4.42257e-06, cumulative = -0.000570611
smoothSolver:  Solving for omega, Initial residual = 5.83972e-05, Final residual = 4.07962e-06, No Iterations 2
smoothSolver:  Solving for k, Initial residual = 0.000849084, Final residual = 6.76336e-05, No Iterations 2
ExecutionTime = 1330.46 s  ClockTime = 1330 s

forceCoeffs forceCoeffs1 write:
    Cm    = 0.157657
    Cd    = 0.411849
    Cl    = 0.0658736
    Cl(f) = 0.190594
    Cl(r) = -0.124721

Time = 78s

smoothSolver:  Solving for Ux, Initial residual = 0.000327557, Final residual = 2.76733e-05, No Iterations 7
smoothSolver:  Solving for Uy, Initial residual = 0.00727123, Final residual = 0.000641954, No Iterations 6
smoothSolver:  Solving for Uz, Initial residual = 0.00691887, Final residual = 0.000611283, No Iterations 6
doubleDiagonalPCG:  Solving for p, Initial residual = 0.00343299, Final residual = 3.43035e-05, No Iterations 2443
time step continuity errors : sum local = 6.5358e-05, global = -4.43863e-06, cumulative = -0.00057505
smoothSolver:  Solving for omega, Initial residual = 5.71187e-05, Final residual = 3.99175e-06, No Iterations 2
smoothSolver:  Solving for k, Initial residual = 0.000831641, Final residual = 6.63854e-05, No Iterations 2
ExecutionTime = 1344.11 s  ClockTime = 1344 s

forceCoeffs forceCoeffs1 write:
    Cm    = 0.157789
    Cd    = 0.412202
    Cl    = 0.066425
    Cl(f) = 0.191001
    Cl(r) = -0.124576

Time = 79s

smoothSolver:  Solving for Ux, Initial residual = 0.000318958, Final residual = 2.67288e-05, No Iterations 7
smoothSolver:  Solving for Uy, Initial residual = 0.00713528, Final residual = 0.000629244, No Iterations 6
smoothSolver:  Solving for Uz, Initial residual = 0.00677692, Final residual = 0.000596012, No Iterations 6
doubleDiagonalPCG:  Solving for p, Initial residual = 0.00336381, Final residual = 3.33644e-05, No Iterations 2275
time step continuity errors : sum local = 6.35554e-05, global = -3.88034e-06, cumulative = -0.00057893
smoothSolver:  Solving for omega, Initial residual = 5.59973e-05, Final residual = 3.90568e-06, No Iterations 2
smoothSolver:  Solving for k, Initial residual = 0.000814692, Final residual = 6.50587e-05, No Iterations 2
ExecutionTime = 1356.99 s  ClockTime = 1357 s

forceCoeffs forceCoeffs1 write:
    Cm    = 0.157876
    Cd    = 0.412508
    Cl    = 0.0669491
    Cl(f) = 0.191351
    Cl(r) = -0.124401

Time = 80s

smoothSolver:  Solving for Ux, Initial residual = 0.000310432, Final residual = 2.59182e-05, No Iterations 7
smoothSolver:  Solving for Uy, Initial residual = 0.0069963, Final residual = 0.000619384, No Iterations 6
smoothSolver:  Solving for Uz, Initial residual = 0.0066213, Final residual = 0.000584494, No Iterations 6
doubleDiagonalPCG:  Solving for p, Initial residual = 0.00330238, Final residual = 3.30048e-05, No Iterations 2458
time step continuity errors : sum local = 6.28583e-05, global = -3.10618e-06, cumulative = -0.000582037
smoothSolver:  Solving for omega, Initial residual = 5.48055e-05, Final residual = 3.81887e-06, No Iterations 2
smoothSolver:  Solving for k, Initial residual = 0.000798387, Final residual = 6.37531e-05, No Iterations 2
ExecutionTime = 1370.76 s  ClockTime = 1371 s

forceCoeffs forceCoeffs1 write:
    Cm    = 0.157953
    Cd    = 0.412766
    Cl    = 0.0675492
    Cl(f) = 0.191728
    Cl(r) = -0.124178

Time = 81s

smoothSolver:  Solving for Ux, Initial residual = 0.000302535, Final residual = 2.51933e-05, No Iterations 7
smoothSolver:  Solving for Uy, Initial residual = 0.00688698, Final residual = 0.000614663, No Iterations 6
smoothSolver:  Solving for Uz, Initial residual = 0.00647619, Final residual = 0.000571927, No Iterations 6
doubleDiagonalPCG:  Solving for p, Initial residual = 0.00324749, Final residual = 3.24195e-05, No Iterations 2301
time step continuity errors : sum local = 6.17311e-05, global = -1.88782e-06, cumulative = -0.000583924
smoothSolver:  Solving for omega, Initial residual = 5.36773e-05, Final residual = 3.74497e-06, No Iterations 2
smoothSolver:  Solving for k, Initial residual = 0.000781948, Final residual = 6.24776e-05, No Iterations 2
ExecutionTime = 1383.73 s  ClockTime = 1384 s

forceCoeffs forceCoeffs1 write:
    Cm    = 0.157991
    Cd    = 0.412982
    Cl    = 0.0680099
    Cl(f) = 0.191996
    Cl(r) = -0.123986

Time = 82s

smoothSolver:  Solving for Ux, Initial residual = 0.000295237, Final residual = 2.44222e-05, No Iterations 7
[...]
doubleDiagonalPCG:  Solving for p, Initial residual = 0.00167804, Final residual = 1.66851e-05, No Iterations 3216
time step continuity errors : sum local = 3.14993e-05, global = -1.91555e-06, cumulative = -0.000582538
smoothSolver:  Solving for omega, Initial residual = 1.84699e-05, Final residual = 1.00323e-06, No Iterations 2
smoothSolver:  Solving for k, Initial residual = 0.000154181, Final residual = 9.35899e-06, No Iterations 2
ExecutionTime = 9698.16 s  ClockTime = 9853 s

forceCoeffs forceCoeffs1 write:
    Cm    = 0.156146
    Cd    = 0.411346
    Cl    = 0.070522
    Cl(f) = 0.191407
    Cl(r) = -0.120885

Time = 481s

smoothSolver:  Solving for Ux, Initial residual = 0.000179725, Final residual = 1.70621e-05, No Iterations 7
smoothSolver:  Solving for Uy, Initial residual = 0.00420601, Final residual = 0.000334033, No Iterations 7
smoothSolver:  Solving for Uz, Initial residual = 0.00365686, Final residual = 0.000283525, No Iterations 7
doubleDiagonalPCG:  Solving for p, Initial residual = 0.00170369, Final residual = 1.70264e-05, No Iterations 3273
time step continuity errors : sum local = 3.21262e-05, global = -2.09133e-06, cumulative = -0.000584629
smoothSolver:  Solving for omega, Initial residual = 1.86724e-05, Final residual = 1.01251e-06, No Iterations 2
smoothSolver:  Solving for k, Initial residual = 0.00015694, Final residual = 9.51756e-06, No Iterations 2
ExecutionTime = 9716.28 s  ClockTime = 9871 s

forceCoeffs forceCoeffs1 write:
    Cm    = 0.156137
    Cd    = 0.41138
    Cl    = 0.0708572
    Cl(f) = 0.191566
    Cl(r) = -0.120709

Time = 482s

smoothSolver:  Solving for Ux, Initial residual = 0.000181111, Final residual = 1.72461e-05, No Iterations 7
smoothSolver:  Solving for Uy, Initial residual = 0.00425043, Final residual = 0.000338817, No Iterations 7
smoothSolver:  Solving for Uz, Initial residual = 0.00367911, Final residual = 0.000284121, No Iterations 7
doubleDiagonalPCG:  Solving for p, Initial residual = 0.00172407, Final residual = 1.71687e-05, No Iterations 3174
time step continuity errors : sum local = 3.23741e-05, global = -2.30074e-06, cumulative = -0.00058693
smoothSolver:  Solving for omega, Initial residual = 1.87385e-05, Final residual = 1.02004e-06, No Iterations 2
smoothSolver:  Solving for k, Initial residual = 0.000158489, Final residual = 9.64064e-06, No Iterations 2
ExecutionTime = 9733.85 s  ClockTime = 9889 s

forceCoeffs forceCoeffs1 write:
    Cm    = 0.156154
    Cd    = 0.411448
    Cl    = 0.0710767
    Cl(f) = 0.191692
    Cl(r) = -0.120616

Time = 483s

smoothSolver:  Solving for Ux, Initial residual = 0.000182034, Final residual = 1.73501e-05, No Iterations 7
smoothSolver:  Solving for Uy, Initial residual = 0.00426295, Final residual = 0.000340725, No Iterations 7
smoothSolver:  Solving for Uz, Initial residual = 0.00369384, Final residual = 0.000286733, No Iterations 7
doubleDiagonalPCG:  Solving for p, Initial residual = 0.00173652, Final residual = 1.73132e-05, No Iterations 3116
time step continuity errors : sum local = 3.26264e-05, global = -2.292e-06, cumulative = -0.000589222
smoothSolver:  Solving for omega, Initial residual = 1.88079e-05, Final residual = 1.02549e-06, No Iterations 2
smoothSolver:  Solving for k, Initial residual = 0.000158713, Final residual = 9.69757e-06, No Iterations 2
ExecutionTime = 9751.29 s  ClockTime = 9906 s

forceCoeffs forceCoeffs1 write:
    Cm    = 0.156234
    Cd    = 0.411519
    Cl    = 0.0713435
    Cl(f) = 0.191906
    Cl(r) = -0.120562

Time = 484s

smoothSolver:  Solving for Ux, Initial residual = 0.000182276, Final residual = 1.74789e-05, No Iterations 7
smoothSolver:  Solving for Uy, Initial residual = 0.00427209, Final residual = 0.000343209, No Iterations 7
smoothSolver:  Solving for Uz, Initial residual = 0.00370513, Final residual = 0.000289821, No Iterations 7
doubleDiagonalPCG:  Solving for p, Initial residual = 0.00173478, Final residual = 1.72973e-05, No Iterations 2649
time step continuity errors : sum local = 3.25772e-05, global = -2.27404e-06, cumulative = -0.000591496
smoothSolver:  Solving for omega, Initial residual = 1.87391e-05, Final residual = 1.02714e-06, No Iterations 2
smoothSolver:  Solving for k, Initial residual = 0.000158837, Final residual = 9.72242e-06, No Iterations 2
ExecutionTime = 9766.15 s  ClockTime = 9921 s

forceCoeffs forceCoeffs1 write:
    Cm    = 0.156348
    Cd    = 0.411592
    Cl    = 0.0715058
    Cl(f) = 0.192101
    Cl(r) = -0.120595

Time = 485s

smoothSolver:  Solving for Ux, Initial residual = 0.000182187, Final residual = 1.75919e-05, No Iterations 7
smoothSolver:  Solving for Uy, Initial residual = 0.00426452, Final residual = 0.000342863, No Iterations 7
smoothSolver:  Solving for Uz, Initial residual = 0.00372449, Final residual = 0.000295869, No Iterations 7
doubleDiagonalPCG:  Solving for p, Initial residual = 0.0017269, Final residual = 1.72209e-05, No Iterations 2681
time step continuity errors : sum local = 3.24226e-05, global = -1.3583e-06, cumulative = -0.000592854
smoothSolver:  Solving for omega, Initial residual = 1.88361e-05, Final residual = 1.02739e-06, No Iterations 2
smoothSolver:  Solving for k, Initial residual = 0.000159983, Final residual = 9.79521e-06, No Iterations 2
ExecutionTime = 9781.29 s  ClockTime = 9936 s

forceCoeffs forceCoeffs1 write:
    Cm    = 0.156501
    Cd    = 0.41168
    Cl    = 0.0716638
    Cl(f) = 0.192333
    Cl(r) = -0.120669

Time = 486s

smoothSolver:  Solving for Ux, Initial residual = 0.000182711, Final residual = 1.78555e-05, No Iterations 7
smoothSolver:  Solving for Uy, Initial residual = 0.00424285, Final residual = 0.000342677, No Iterations 7
smoothSolver:  Solving for Uz, Initial residual = 0.00374901, Final residual = 0.000301727, No Iterations 7
doubleDiagonalPCG:  Solving for p, Initial residual = 0.00171325, Final residual = 1.71088e-05, No Iterations 3203
time step continuity errors : sum local = 3.2203e-05, global = -7.10313e-07, cumulative = -0.000593565
smoothSolver:  Solving for omega, Initial residual = 1.87071e-05, Final residual = 1.02478e-06, No Iterations 2
smoothSolver:  Solving for k, Initial residual = 0.000161463, Final residual = 9.92115e-06, No Iterations 2
ExecutionTime = 9799.1 s  ClockTime = 9954 s

forceCoeffs forceCoeffs1 write:
    Cm    = 0.156647
    Cd    = 0.41177
    Cl    = 0.0716826
    Cl(f) = 0.192489
    Cl(r) = -0.120806

Time = 487s

smoothSolver:  Solving for Ux, Initial residual = 0.000184388, Final residual = 1.82179e-05, No Iterations 7
smoothSolver:  Solving for Uy, Initial residual = 0.00423556, Final residual = 0.000343692, No Iterations 7
smoothSolver:  Solving for Uz, Initial residual = 0.00376732, Final residual = 0.000308209, No Iterations 7
doubleDiagonalPCG:  Solving for p, Initial residual = 0.00169655, Final residual = 1.69177e-05, No Iterations 3207
time step continuity errors : sum local = 3.18385e-05, global = 5.83818e-08, cumulative = -0.000593506
smoothSolver:  Solving for omega, Initial residual = 1.87049e-05, Final residual = 1.02424e-06, No Iterations 2
smoothSolver:  Solving for k, Initial residual = 0.000162994, Final residual = 1.00555e-05, No Iterations 2
ExecutionTime = 9817.1 s  ClockTime = 9972 s

forceCoeffs forceCoeffs1 write:
    Cm    = 0.156808
    Cd    = 0.411865
    Cl    = 0.0716861
    Cl(f) = 0.192651
    Cl(r) = -0.120965

Time = 488s

smoothSolver:  Solving for Ux, Initial residual = 0.000186528, Final residual = 1.84451e-05, No Iterations 7
smoothSolver:  Solving for Uy, Initial residual = 0.00423172, Final residual = 0.00034466, No Iterations 7
smoothSolver:  Solving for Uz, Initial residual = 0.0037698, Final residual = 0.00031212, No Iterations 7
doubleDiagonalPCG:  Solving for p, Initial residual = 0.00168663, Final residual = 1.67489e-05, No Iterations 3396
time step continuity errors : sum local = 3.15249e-05, global = 3.93136e-08, cumulative = -0.000593467
smoothSolver:  Solving for omega, Initial residual = 1.88343e-05, Final residual = 1.02483e-06, No Iterations 2
smoothSolver:  Solving for k, Initial residual = 0.000164979, Final residual = 1.01553e-05, No Iterations 2
ExecutionTime = 9835.82 s  ClockTime = 9991 s

forceCoeffs forceCoeffs1 write:
    Cm    = 0.156949
    Cd    = 0.411958
    Cl    = 0.0715379
    Cl(f) = 0.192718
    Cl(r) = -0.12118

Time = 489s

smoothSolver:  Solving for Ux, Initial residual = 0.000188816, Final residual = 1.86167e-05, No Iterations 7
smoothSolver:  Solving for Uy, Initial residual = 0.00422001, Final residual = 0.00034453, No Iterations 7
smoothSolver:  Solving for Uz, Initial residual = 0.00378391, Final residual = 0.000314037, No Iterations 7
doubleDiagonalPCG:  Solving for p, Initial residual = 0.00168049, Final residual = 1.67556e-05, No Iterations 3004
time step continuity errors : sum local = 3.15462e-05, global = 8.15736e-07, cumulative = -0.000592651
smoothSolver:  Solving for omega, Initial residual = 1.8811e-05, Final residual = 1.01973e-06, No Iterations 2
smoothSolver:  Solving for k, Initial residual = 0.000165741, Final residual = 1.01555e-05, No Iterations 2
ExecutionTime = 9852.61 s  ClockTime = 10008 s

forceCoeffs forceCoeffs1 write:
    Cm    = 0.15706
    Cd    = 0.412033
    Cl    = 0.0713868
    Cl(f) = 0.192753
    Cl(r) = -0.121366

Time = 490s

smoothSolver:  Solving for Ux, Initial residual = 0.000189945, Final residual = 1.86869e-05, No Iterations 7
smoothSolver:  Solving for Uy, Initial residual = 0.00420698, Final residual = 0.000342311, No Iterations 7
smoothSolver:  Solving for Uz, Initial residual = 0.00378881, Final residual = 0.000314914, No Iterations 7
doubleDiagonalPCG:  Solving for p, Initial residual = 0.00167946, Final residual = 1.67524e-05, No Iterations 3462
time step continuity errors : sum local = 3.15484e-05, global = -2.74909e-07, cumulative = -0.000592926
smoothSolver:  Solving for omega, Initial residual = 1.87779e-05, Final residual = 1.00946e-06, No Iterations 2
smoothSolver:  Solving for k, Initial residual = 0.00016572, Final residual = 1.00716e-05, No Iterations 2
ExecutionTime = 9872.04 s  ClockTime = 10027 s

forceCoeffs forceCoeffs1 write:
    Cm    = 0.157137
    Cd    = 0.412076
    Cl    = 0.0711907
    Cl(f) = 0.192733
    Cl(r) = -0.121542

Time = 491s

smoothSolver:  Solving for Ux, Initial residual = 0.000191072, Final residual = 1.87557e-05, No Iterations 7
smoothSolver:  Solving for Uy, Initial residual = 0.00420888, Final residual = 0.000342422, No Iterations 7
smoothSolver:  Solving for Uz, Initial residual = 0.00380548, Final residual = 0.00032012, No Iterations 7
doubleDiagonalPCG:  Solving for p, Initial residual = 0.00168102, Final residual = 1.67514e-05, No Iterations 3184
time step continuity errors : sum local = 3.15565e-05, global = -2.68812e-07, cumulative = -0.000593195
smoothSolver:  Solving for omega, Initial residual = 1.89986e-05, Final residual = 1.01752e-06, No Iterations 2
smoothSolver:  Solving for k, Initial residual = 0.000164681, Final residual = 1.00133e-05, No Iterations 2
ExecutionTime = 9889.5 s  ClockTime = 10045 s

forceCoeffs forceCoeffs1 write:
    Cm    = 0.157193
    Cd    = 0.412091
    Cl    = 0.0710175
    Cl(f) = 0.192701
    Cl(r) = -0.121684

Time = 492s

smoothSolver:  Solving for Ux, Initial residual = 0.00019095, Final residual = 1.89077e-05, No Iterations 7
smoothSolver:  Solving for Uy, Initial residual = 0.00421499, Final residual = 0.000344033, No Iterations 7
smoothSolver:  Solving for Uz, Initial residual = 0.00385391, Final residual = 0.000326048, No Iterations 7
doubleDiagonalPCG:  Solving for p, Initial residual = 0.00169391, Final residual = 1.68911e-05, No Iterations 3617
time step continuity errors : sum local = 3.1823e-05, global = -1.17044e-06, cumulative = -0.000594365
smoothSolver:  Solving for omega, Initial residual = 1.91977e-05, Final residual = 1.02774e-06, No Iterations 2
smoothSolver:  Solving for k, Initial residual = 0.000163114, Final residual = 9.95467e-06, No Iterations 2
ExecutionTime = 9909.51 s  ClockTime = 10065 s

forceCoeffs forceCoeffs1 write:
    Cm    = 0.157228
    Cd    = 0.412152
    Cl    = 0.0708194
    Cl(f) = 0.192638
    Cl(r) = -0.121819

Time = 493s

smoothSolver:  Solving for Ux, Initial residual = 0.000191288, Final residual = 1.90537e-05, No Iterations 7
smoothSolver:  Solving for Uy, Initial residual = 0.00424611, Final residual = 0.000347138, No Iterations 7
smoothSolver:  Solving for Uz, Initial residual = 0.00391774, Final residual = 0.000330015, No Iterations 7
doubleDiagonalPCG:  Solving for p, Initial residual = 0.00171355, Final residual = 1.70085e-05, No Iterations 3678
time step continuity errors : sum local = 3.20449e-05, global = -1.46481e-06, cumulative = -0.00059583
smoothSolver:  Solving for omega, Initial residual = 1.95726e-05, Final residual = 1.04983e-06, No Iterations 2
smoothSolver:  Solving for k, Initial residual = 0.00016155, Final residual = 9.9979e-06, No Iterations 2
ExecutionTime = 9929.75 s  ClockTime = 10085 s

forceCoeffs forceCoeffs1 write:
    Cm    = 0.157272
    Cd    = 0.412236
    Cl    = 0.0705995
    Cl(f) = 0.192572
    Cl(r) = -0.121972

Time = 494s

smoothSolver:  Solving for Ux, Initial residual = 0.000191844, Final residual = 1.91171e-05, No Iterations 7
smoothSolver:  Solving for Uy, Initial residual = 0.00430818, Final residual = 0.000349803, No Iterations 7
smoothSolver:  Solving for Uz, Initial residual = 0.0039734, Final residual = 0.000330733, No Iterations 7
doubleDiagonalPCG:  Solving for p, Initial residual = 0.00172945, Final residual = 1.72889e-05, No Iterations 3707
time step continuity errors : sum local = 3.25662e-05, global = -1.38843e-06, cumulative = -0.000597219
smoothSolver:  Solving for omega, Initial residual = 1.98478e-05, Final residual = 1.07705e-06, No Iterations 2
smoothSolver:  Solving for k, Initial residual = 0.000161005, Final residual = 1.00907e-05, No Iterations 2
ExecutionTime = 9950.21 s  ClockTime = 10105 s

forceCoeffs forceCoeffs1 write:
    Cm    = 0.157348
    Cd    = 0.412385
    Cl    = 0.0703932
    Cl(f) = 0.192544
    Cl(r) = -0.122151

Time = 495s

smoothSolver:  Solving for Ux, Initial residual = 0.000192361, Final residual = 1.90154e-05, No Iterations 7
smoothSolver:  Solving for Uy, Initial residual = 0.00439188, Final residual = 0.000353868, No Iterations 7
smoothSolver:  Solving for Uz, Initial residual = 0.00400231, Final residual = 0.000327482, No Iterations 7
doubleDiagonalPCG:  Solving for p, Initial residual = 0.00174799, Final residual = 1.74478e-05, No Iterations 3501
time step continuity errors : sum local = 3.28565e-05, global = -1.0863e-06, cumulative = -0.000598305
smoothSolver:  Solving for omega, Initial residual = 2.0269e-05, Final residual = 1.12196e-06, No Iterations 2
smoothSolver:  Solving for k, Initial residual = 0.000160757, Final residual = 1.0227e-05, No Iterations 2
ExecutionTime = 9969.54 s  ClockTime = 10125 s

forceCoeffs forceCoeffs1 write:
    Cm    = 0.15745
    Cd    = 0.412543
    Cl    = 0.0702443
    Cl(f) = 0.192572
    Cl(r) = -0.122328

Time = 496s

smoothSolver:  Solving for Ux, Initial residual = 0.000192851, Final residual = 1.88913e-05, No Iterations 7
smoothSolver:  Solving for Uy, Initial residual = 0.00445253, Final residual = 0.000355727, No Iterations 7
smoothSolver:  Solving for Uz, Initial residual = 0.00401148, Final residual = 0.000321725, No Iterations 7
doubleDiagonalPCG:  Solving for p, Initial residual = 0.0017637, Final residual = 1.7513e-05, No Iterations 3143
time step continuity errors : sum local = 3.29727e-05, global = -1.55743e-07, cumulative = -0.000598461
smoothSolver:  Solving for omega, Initial residual = 2.05603e-05, Final residual = 1.15433e-06, No Iterations 2
smoothSolver:  Solving for k, Initial residual = 0.00015994, Final residual = 1.01891e-05, No Iterations 2
ExecutionTime = 9986.77 s  ClockTime = 10142 s

forceCoeffs forceCoeffs1 write:
    Cm    = 0.157546
    Cd    = 0.412686
    Cl    = 0.0701328
    Cl(f) = 0.192613
    Cl(r) = -0.12248

Time = 497s

smoothSolver:  Solving for Ux, Initial residual = 0.000194332, Final residual = 1.88866e-05, No Iterations 7
smoothSolver:  Solving for Uy, Initial residual = 0.00447031, Final residual = 0.000356208, No Iterations 7
smoothSolver:  Solving for Uz, Initial residual = 0.0040282, Final residual = 0.000319773, No Iterations 7
doubleDiagonalPCG:  Solving for p, Initial residual = 0.00178819, Final residual = 1.78311e-05, No Iterations 3165
time step continuity errors : sum local = 3.35718e-05, global = 1.27028e-06, cumulative = -0.00059719
smoothSolver:  Solving for omega, Initial residual = 2.07388e-05, Final residual = 1.16894e-06, No Iterations 2
smoothSolver:  Solving for k, Initial residual = 0.000158145, Final residual = 9.98623e-06, No Iterations 2
ExecutionTime = 10004.8 s  ClockTime = 10160 s

forceCoeffs forceCoeffs1 write:
    Cm    = 0.157637
    Cd    = 0.412803
    Cl    = 0.0700588
    Cl(f) = 0.192667
    Cl(r) = -0.122608

Time = 498s

smoothSolver:  Solving for Ux, Initial residual = 0.000196998, Final residual = 1.9026e-05, No Iterations 7
smoothSolver:  Solving for Uy, Initial residual = 0.00450252, Final residual = 0.000357015, No Iterations 7
smoothSolver:  Solving for Uz, Initial residual = 0.00407809, Final residual = 0.000322197, No Iterations 7
doubleDiagonalPCG:  Solving for p, Initial residual = 0.00180981, Final residual = 1.80836e-05, No Iterations 3374
time step continuity errors : sum local = 3.40548e-05, global = 2.09686e-06, cumulative = -0.000595094
smoothSolver:  Solving for omega, Initial residual = 2.10165e-05, Final residual = 1.17582e-06, No Iterations 2
smoothSolver:  Solving for k, Initial residual = 0.000156116, Final residual = 9.69126e-06, No Iterations 2
ExecutionTime = 10023.6 s  ClockTime = 10179 s

forceCoeffs forceCoeffs1 write:
    Cm    = 0.157759
    Cd    = 0.412985
    Cl    = 0.0698591
    Cl(f) = 0.192688
    Cl(r) = -0.122829

Time = 499s

smoothSolver:  Solving for Ux, Initial residual = 0.000200247, Final residual = 1.92763e-05, No Iterations 7
smoothSolver:  Solving for Uy, Initial residual = 0.00456222, Final residual = 0.000360317, No Iterations 7
smoothSolver:  Solving for Uz, Initial residual = 0.00411069, Final residual = 0.000325421, No Iterations 7
doubleDiagonalPCG:  Solving for p, Initial residual = 0.00183655, Final residual = 1.82066e-05, No Iterations 3679
time step continuity errors : sum local = 3.43056e-05, global = 1.71144e-06, cumulative = -0.000593382
smoothSolver:  Solving for omega, Initial residual = 2.1277e-05, Final residual = 1.1769e-06, No Iterations 2
smoothSolver:  Solving for k, Initial residual = 0.000156469, Final residual = 9.5632e-06, No Iterations 2
ExecutionTime = 10043.8 s  ClockTime = 10199 s

forceCoeffs forceCoeffs1 write:
    Cm    = 0.157909
    Cd    = 0.413245
    Cl    = 0.0695729
    Cl(f) = 0.192696
    Cl(r) = -0.123123

Time = 500s

smoothSolver:  Solving for Ux, Initial residual = 0.000204327, Final residual = 1.94727e-05, No Iterations 7
smoothSolver:  Solving for Uy, Initial residual = 0.00465994, Final residual = 0.000368009, No Iterations 7
smoothSolver:  Solving for Uz, Initial residual = 0.00412954, Final residual = 0.000328075, No Iterations 7
doubleDiagonalPCG:  Solving for p, Initial residual = 0.00186992, Final residual = 1.85987e-05, No Iterations 3631
time step continuity errors : sum local = 3.50756e-05, global = 1.32419e-06, cumulative = -0.000592058
smoothSolver:  Solving for omega, Initial residual = 2.15831e-05, Final residual = 1.18562e-06, No Iterations 2
smoothSolver:  Solving for k, Initial residual = 0.000159809, Final residual = 9.66554e-06, No Iterations 2
ExecutionTime = 10064.1 s  ClockTime = 10219 s

streamlines streamlines write:
    Seeded 20 particles
    Sampled 17170 locations
forceCoeffs forceCoeffs1 write:
    Cm    = 0.158037
    Cd    = 0.413495
    Cl    = 0.069256
    Cl(f) = 0.192665
    Cl(r) = -0.123409

End

