
simpleFoam has been superseded and replaced by the more general
incompressibleFluid solver module executed by the foamRun application:

    foamRun -solver incompressibleFluid

/*---------------------------------------------------------------------------*\
  =========                 |
  \\      /  F ield         | OpenFOAM: The Open Source CFD Toolbox
   \\    /   O peration     | Website:  https://openfoam.org
    \\  /    A nd           | Version:  dev
     \\/     M anipulation  |
\*---------------------------------------------------------------------------*/
Build  : dev-c8cf725d25ac
Exec   : foamRun -solver incompressibleFluid
Date   : Dec 01 2023
Time   : 14:08:59
Host   : "cfdphoto4.escet.urjc.es"
PID    : 236003
I/O    : uncollated
Case   : /home/carlos/Desktop/tutorials/incompressible/simpleFoam/motorBike
nProcs : 1
sigFpe : Enabling floating point exception trapping (FOAM_SIGFPE).
fileModificationChecking : Monitoring run-time modified files using timeStampMaster (fileModificationSkew 10)
allowSystemOperations : Allowing user-supplied system call operations

// * * * * * * * * * * * * * * * * * * * * * * * * * * * * * * * * * * * * * //
Create time

Create mesh for time = 0

Selecting solver incompressibleFluid
Selecting viscosity model constant
Selecting turbulence model type RAS
Selecting RAS turbulence model kOmegaSST
Selecting patchDistMethod meshWave
RAS
{
    model           kOmegaSST;
    turbulence      on;
    printCoeffs     on;
    alphaK1         0.85;
    alphaK2         1;
    alphaOmega1     0.5;
    alphaOmega2     0.856;
    gamma1          0.555556;
    gamma2          0.44;
    beta1           0.075;
    beta2           0.0828;
    betaStar        0.09;
    a1              0.31;
    b1              1;
    c1              10;
    F3              false;
}

No MRF models present


SIMPLE: No convergence criteria found


SIMPLE: Operating solver in steady-state mode with 1 outer corrector
SIMPLE: Operating solver in SIMPLE mode



Starting time loop

streamlines streamlines:
    automatic track length specified through number of sub cycles : 5

Reading surface description:
    yNormal

forces forceCoeffs1:
    Not including porosity effects
forceCoeffs forceCoeffs1:
    Not including porosity effects
streamlines streamlines write:
    Seeded 20 particles
    Sampled 18930 locations
forceCoeffs forceCoeffs1 write:
    Cm    = 0.00903095
    Cd    = 0.0223822
    Cl    = 0.000742529
    Cl(f) = 0.00940222
    Cl(r) = -0.00865969

Time = 1s

smoothSolver:  Solving for Ux, Initial residual = 0.088049, Final residual = 0.00771221, No Iterations 7
smoothSolver:  Solving for Uy, Initial residual = 0.587568, Final residual = 0.0542929, No Iterations 6
smoothSolver:  Solving for Uz, Initial residual = 0.407219, Final residual = 0.0330159, No Iterations 5
DICPCG:  Solving for p, Initial residual = 1, Final residual = 0.00988256, No Iterations 57
time step continuity errors : sum local = 0.000993236, global = 0.000149488, cumulative = 0.000149488
smoothSolver:  Solving for omega, Initial residual = 0.00136968, Final residual = 7.83899e-05, No Iterations 2
bounding omega, min: -11.6564 max: 20456.2 average: 188.735
smoothSolver:  Solving for k, Initial residual = 1, Final residual = 0.0306851, No Iterations 2
ExecutionTime = 6.87985 s  ClockTime = 7 s

forceCoeffs forceCoeffs1 write:
    Cm    = 0.564058
    Cd    = 1.33337
    Cl    = -0.0381343
    Cl(f) = 0.54499
    Cl(r) = -0.583125

Time = 2s

smoothSolver:  Solving for Ux, Initial residual = 0.0387946, Final residual = 0.00346128, No Iterations 7
smoothSolver:  Solving for Uy, Initial residual = 0.378402, Final residual = 0.0314577, No Iterations 7
smoothSolver:  Solving for Uz, Initial residual = 0.164369, Final residual = 0.0124701, No Iterations 7
DICPCG:  Solving for p, Initial residual = 0.0730708, Final residual = 0.000707012, No Iterations 43
time step continuity errors : sum local = 0.000753155, global = 0.000238549, cumulative = 0.000388037
smoothSolver:  Solving for omega, Initial residual = 0.00149895, Final residual = 0.000105208, No Iterations 2
bounding omega, min: -6.06774 max: 20456.2 average: 239.01
smoothSolver:  Solving for k, Initial residual = 0.0516517, Final residual = 0.00177557, No Iterations 2
ExecutionTime = 8.14665 s  ClockTime = 8 s

forceCoeffs forceCoeffs1 write:
    Cm    = 0.651093
    Cd    = 1.52799
    Cl    = -0.0538444
    Cl(f) = 0.624171
    Cl(r) = -0.678016

Time = 3s

smoothSolver:  Solving for Ux, Initial residual = 0.0202505, Final residual = 0.00199379, No Iterations 7
smoothSolver:  Solving for Uy, Initial residual = 0.29275, Final residual = 0.0249484, No Iterations 7
smoothSolver:  Solving for Uz, Initial residual = 0.11038, Final residual = 0.0088609, No Iterations 7
DICPCG:  Solving for p, Initial residual = 0.0526033, Final residual = 0.000511875, No Iterations 53
time step continuity errors : sum local = 0.000726641, global = 7.39128e-05, cumulative = 0.00046195
smoothSolver:  Solving for omega, Initial residual = 0.00113004, Final residual = 7.55203e-05, No Iterations 2
smoothSolver:  Solving for k, Initial residual = 0.0223549, Final residual = 0.000868398, No Iterations 2
ExecutionTime = 9.53149 s  ClockTime = 10 s

forceCoeffs forceCoeffs1 write:
    Cm    = 0.571112
    Cd    = 1.33795
    Cl    = -0.0380046
    Cl(f) = 0.552109
    Cl(r) = -0.590114

Time = 4s

smoothSolver:  Solving for Ux, Initial residual = 0.0137361, Final residual = 0.00105537, No Iterations 8
smoothSolver:  Solving for Uy, Initial residual = 0.23639, Final residual = 0.0193684, No Iterations 7
smoothSolver:  Solving for Uz, Initial residual = 0.100107, Final residual = 0.0080571, No Iterations 7
DICPCG:  Solving for p, Initial residual = 0.0455117, Final residual = 0.000440188, No Iterations 50
time step continuity errors : sum local = 0.000730029, global = 0.000155532, cumulative = 0.000617482
smoothSolver:  Solving for omega, Initial residual = 0.00102323, Final residual = 7.37697e-05, No Iterations 2
smoothSolver:  Solving for k, Initial residual = 0.0130586, Final residual = 0.000545608, No Iterations 2
ExecutionTime = 10.8741 s  ClockTime = 11 s

forceCoeffs forceCoeffs1 write:
    Cm    = 0.464775
    Cd    = 1.09074
    Cl    = -0.0291499
    Cl(f) = 0.4502
    Cl(r) = -0.47935

Time = 5s

smoothSolver:  Solving for Ux, Initial residual = 0.0106206, Final residual = 0.0010436, No Iterations 7
smoothSolver:  Solving for Uy, Initial residual = 0.202671, Final residual = 0.0162286, No Iterations 7
smoothSolver:  Solving for Uz, Initial residual = 0.102687, Final residual = 0.00833184, No Iterations 7
DICPCG:  Solving for p, Initial residual = 0.0410376, Final residual = 0.000408103, No Iterations 51
time step continuity errors : sum local = 0.000746732, global = 0.000210653, cumulative = 0.000828135
smoothSolver:  Solving for omega, Initial residual = 0.000933802, Final residual = 6.93187e-05, No Iterations 2
smoothSolver:  Solving for k, Initial residual = 0.00904599, Final residual = 0.000394724, No Iterations 2
ExecutionTime = 12.2297 s  ClockTime = 12 s

forceCoeffs forceCoeffs1 write:
    Cm    = 0.378004
    Cd    = 0.893119
    Cl    = -0.0212013
    Cl(f) = 0.367403
    Cl(r) = -0.388605

Time = 6s

smoothSolver:  Solving for Ux, Initial residual = 0.0085307, Final residual = 0.000817917, No Iterations 7
smoothSolver:  Solving for Uy, Initial residual = 0.181019, Final residual = 0.0143445, No Iterations 7
smoothSolver:  Solving for Uz, Initial residual = 0.107472, Final residual = 0.00885685, No Iterations 7
DICPCG:  Solving for p, Initial residual = 0.0366846, Final residual = 0.000342783, No Iterations 52
time step continuity errors : sum local = 0.000679062, global = 0.000199357, cumulative = 0.00102749
smoothSolver:  Solving for omega, Initial residual = 0.000850991, Final residual = 6.4637e-05, No Iterations 2
smoothSolver:  Solving for k, Initial residual = 0.00703948, Final residual = 0.000319322, No Iterations 2
ExecutionTime = 13.6381 s  ClockTime = 14 s

forceCoeffs forceCoeffs1 write:
    Cm    = 0.313208
    Cd    = 0.745239
    Cl    = -0.00836942
    Cl(f) = 0.309023
    Cl(r) = -0.317392

Time = 7s

smoothSolver:  Solving for Ux, Initial residual = 0.00715231, Final residual = 0.000668484, No Iterations 7
smoothSolver:  Solving for Uy, Initial residual = 0.164635, Final residual = 0.013052, No Iterations 7
smoothSolver:  Solving for Uz, Initial residual = 0.117819, Final residual = 0.00970358, No Iterations 7
DICPCG:  Solving for p, Initial residual = 0.0326705, Final residual = 0.000319554, No Iterations 49
time step continuity errors : sum local = 0.00067529, global = 0.000178787, cumulative = 0.00120628
smoothSolver:  Solving for omega, Initial residual = 0.000772946, Final residual = 5.93436e-05, No Iterations 2
smoothSolver:  Solving for k, Initial residual = 0.0058767, Final residual = 0.000276686, No Iterations 2
ExecutionTime = 15.0558 s  ClockTime = 15 s

forceCoeffs forceCoeffs1 write:
    Cm    = 0.267732
    Cd    = 0.641165
    Cl    = 0.00261511
    Cl(f) = 0.269039
    Cl(r) = -0.266424

Time = 8s

smoothSolver:  Solving for Ux, Initial residual = 0.00615119, Final residual = 0.000573644, No Iterations 7
smoothSolver:  Solving for Uy, Initial residual = 0.147341, Final residual = 0.011593, No Iterations 7
smoothSolver:  Solving for Uz, Initial residual = 0.128249, Final residual = 0.0104998, No Iterations 7
DICPCG:  Solving for p, Initial residual = 0.0299983, Final residual = 0.000296375, No Iterations 33
time step continuity errors : sum local = 0.000652513, global = 0.000169368, cumulative = 0.00137565
smoothSolver:  Solving for omega, Initial residual = 0.00070861, Final residual = 5.44389e-05, No Iterations 2
smoothSolver:  Solving for k, Initial residual = 0.0051442, Final residual = 0.000252293, No Iterations 2
ExecutionTime = 16.2694 s  ClockTime = 16 s

forceCoeffs forceCoeffs1 write:
    Cm    = 0.23608
    Cd    = 0.569288
    Cl    = 0.00892137
    Cl(f) = 0.240541
    Cl(r) = -0.23162

Time = 9s

smoothSolver:  Solving for Ux, Initial residual = 0.0053827, Final residual = 0.000516214, No Iterations 7
smoothSolver:  Solving for Uy, Initial residual = 0.132524, Final residual = 0.010368, No Iterations 7
smoothSolver:  Solving for Uz, Initial residual = 0.135979, Final residual = 0.0111663, No Iterations 7
DICPCG:  Solving for p, Initial residual = 0.0283697, Final residual = 0.000280492, No Iterations 36
time step continuity errors : sum local = 0.000625636, global = 0.00021426, cumulative = 0.00158991
smoothSolver:  Solving for omega, Initial residual = 0.000652685, Final residual = 5.00551e-05, No Iterations 2
smoothSolver:  Solving for k, Initial residual = 0.00465187, Final residual = 0.000237653, No Iterations 2
ExecutionTime = 17.5183 s  ClockTime = 18 s

forceCoeffs forceCoeffs1 write:
    Cm    = 0.214554
    Cd    = 0.521516
    Cl    = 0.0132321
    Cl(f) = 0.22117
    Cl(r) = -0.207938

Time = 10s

smoothSolver:  Solving for Ux, Initial residual = 0.00484353, Final residual = 0.000471209, No Iterations 7
smoothSolver:  Solving for Uy, Initial residual = 0.120038, Final residual = 0.00925518, No Iterations 7
smoothSolver:  Solving for Uz, Initial residual = 0.125016, Final residual = 0.010283, No Iterations 7
DICPCG:  Solving for p, Initial residual = 0.0265978, Final residual = 0.000251617, No Iterations 36
time step continuity errors : sum local = 0.000571789, global = 0.000169547, cumulative = 0.00175945
smoothSolver:  Solving for omega, Initial residual = 0.000605051, Final residual = 4.64764e-05, No Iterations 2
smoothSolver:  Solving for k, Initial residual = 0.00428938, Final residual = 0.000228363, No Iterations 2
ExecutionTime = 18.7685 s  ClockTime = 19 s

forceCoeffs forceCoeffs1 write:
    Cm    = 0.200298
    Cd    = 0.489802
    Cl    = 0.0151321
    Cl(f) = 0.207864
    Cl(r) = -0.192732

Time = 11s

smoothSolver:  Solving for Ux, Initial residual = 0.00443131, Final residual = 0.000434441, No Iterations 7
smoothSolver:  Solving for Uy, Initial residual = 0.107586, Final residual = 0.00828809, No Iterations 7
smoothSolver:  Solving for Uz, Initial residual = 0.113181, Final residual = 0.00933356, No Iterations 7
DICPCG:  Solving for p, Initial residual = 0.0252222, Final residual = 0.000250588, No Iterations 34
time step continuity errors : sum local = 0.000573109, global = 0.000108994, cumulative = 0.00186845
smoothSolver:  Solving for omega, Initial residual = 0.000568108, Final residual = 4.35322e-05, No Iterations 2
smoothSolver:  Solving for k, Initial residual = 0.00400954, Final residual = 0.000221436, No Iterations 2
ExecutionTime = 20.0517 s  ClockTime = 20 s

forceCoeffs forceCoeffs1 write:
    Cm    = 0.190463
    Cd    = 0.468236
    Cl    = 0.0174435
    Cl(f) = 0.199185
    Cl(r) = -0.181742

Time = 12s

smoothSolver:  Solving for Ux, Initial residual = 0.00412452, Final residual = 0.000407186, No Iterations 7
smoothSolver:  Solving for Uy, Initial residual = 0.0972579, Final residual = 0.00758533, No Iterations 7
smoothSolver:  Solving for Uz, Initial residual = 0.106295, Final residual = 0.00888713, No Iterations 7
DICPCG:  Solving for p, Initial residual = 0.0241941, Final residual = 0.000234335, No Iterations 34
time step continuity errors : sum local = 0.000533845, global = 4.50168e-05, cumulative = 0.00191347
smoothSolver:  Solving for omega, Initial residual = 0.00053628, Final residual = 4.08294e-05, No Iterations 2
smoothSolver:  Solving for k, Initial residual = 0.00377808, Final residual = 0.000215979, No Iterations 2
ExecutionTime = 21.2528 s  ClockTime = 21 s

forceCoeffs forceCoeffs1 write:
    Cm    = 0.184244
    Cd    = 0.4539
    Cl    = 0.0212542
    Cl(f) = 0.194871
    Cl(r) = -0.173617

Time = 13s

smoothSolver:  Solving for Ux, Initial residual = 0.00391245, Final residual = 0.000385672, No Iterations 7
smoothSolver:  Solving for Uy, Initial residual = 0.0884708, Final residual = 0.00700077, No Iterations 7
smoothSolver:  Solving for Uz, Initial residual = 0.10268, Final residual = 0.00866011, No Iterations 7
DICPCG:  Solving for p, Initial residual = 0.0234932, Final residual = 0.000219735, No Iterations 34
time step continuity errors : sum local = 0.00049548, global = -7.45483e-06, cumulative = 0.00190601
smoothSolver:  Solving for omega, Initial residual = 0.000507869, Final residual = 3.84408e-05, No Iterations 2
smoothSolver:  Solving for k, Initial residual = 0.00359001, Final residual = 0.000212369, No Iterations 2
ExecutionTime = 22.4986 s  ClockTime = 23 s

forceCoeffs forceCoeffs1 write:
    Cm    = 0.180938
    Cd    = 0.44515
    Cl    = 0.0252711
    Cl(f) = 0.193574
    Cl(r) = -0.168302

Time = 14s

smoothSolver:  Solving for Ux, Initial residual = 0.0037524, Final residual = 0.000372085, No Iterations 7
smoothSolver:  Solving for Uy, Initial residual = 0.0813116, Final residual = 0.00649574, No Iterations 7
smoothSolver:  Solving for Uz, Initial residual = 0.0988711, Final residual = 0.00831611, No Iterations 7
DICPCG:  Solving for p, Initial residual = 0.0231426, Final residual = 0.000229747, No Iterations 31
time step continuity errors : sum local = 0.000511271, global = -3.96428e-05, cumulative = 0.00186637
smoothSolver:  Solving for omega, Initial residual = 0.000482771, Final residual = 3.63753e-05, No Iterations 2
smoothSolver:  Solving for k, Initial residual = 0.00344656, Final residual = 0.000209533, No Iterations 2
ExecutionTime = 23.6611 s  ClockTime = 24 s

forceCoeffs forceCoeffs1 write:
    Cm    = 0.179786
    Cd    = 0.440871
    Cl    = 0.0304477
    Cl(f) = 0.195009
    Cl(r) = -0.164562

Time = 15s

smoothSolver:  Solving for Ux, Initial residual = 0.00361161, Final residual = 0.000360698, No Iterations 7
smoothSolver:  Solving for Uy, Initial residual = 0.0757078, Final residual = 0.00610261, No Iterations 7
smoothSolver:  Solving for Uz, Initial residual = 0.090266, Final residual = 0.00760616, No Iterations 7
DICPCG:  Solving for p, Initial residual = 0.0227142, Final residual = 0.000226332, No Iterations 32
time step continuity errors : sum local = 0.000497648, global = -4.25231e-05, cumulative = 0.00182385
smoothSolver:  Solving for omega, Initial residual = 0.000457388, Final residual = 3.43729e-05, No Iterations 2
smoothSolver:  Solving for k, Initial residual = 0.00332121, Final residual = 0.000206789, No Iterations 2
ExecutionTime = 24.8707 s  ClockTime = 25 s

forceCoeffs forceCoeffs1 write:
    Cm    = 0.180127
    Cd    = 0.439201
    Cl    = 0.0363392
    Cl(f) = 0.198297
    Cl(r) = -0.161958

Time = 16s

smoothSolver:  Solving for Ux, Initial residual = 0.00347106, Final residual = 0.000346611, No Iterations 7
smoothSolver:  Solving for Uy, Initial residual = 0.0709232, Final residual = 0.00579066, No Iterations 7
smoothSolver:  Solving for Uz, Initial residual = 0.0819013, Final residual = 0.00689205, No Iterations 7
DICPCG:  Solving for p, Initial residual = 0.0222815, Final residual = 0.000216184, No Iterations 33
time step continuity errors : sum local = 0.000469954, global = -2.09833e-05, cumulative = 0.00180286
smoothSolver:  Solving for omega, Initial residual = 0.000434337, Final residual = 3.24575e-05, No Iterations 2
smoothSolver:  Solving for k, Initial residual = 0.00320341, Final residual = 0.000204558, No Iterations 2
ExecutionTime = 26.0816 s  ClockTime = 26 s

forceCoeffs forceCoeffs1 write:
    Cm    = 0.180659
    Cd    = 0.437988
    Cl    = 0.0427262
    Cl(f) = 0.202022
    Cl(r) = -0.159296

Time = 17s

smoothSolver:  Solving for Ux, Initial residual = 0.003337, Final residual = 0.000249276, No Iterations 8
smoothSolver:  Solving for Uy, Initial residual = 0.0667807, Final residual = 0.00552051, No Iterations 7
smoothSolver:  Solving for Uz, Initial residual = 0.0745587, Final residual = 0.00623071, No Iterations 7
DICPCG:  Solving for p, Initial residual = 0.0216642, Final residual = 0.00020511, No Iterations 34
time step continuity errors : sum local = 0.000443315, global = 7.84324e-06, cumulative = 0.00181071
smoothSolver:  Solving for omega, Initial residual = 0.000414195, Final residual = 3.07585e-05, No Iterations 2
smoothSolver:  Solving for k, Initial residual = 0.00309529, Final residual = 0.000202254, No Iterations 2
ExecutionTime = 27.3081 s  ClockTime = 27 s

forceCoeffs forceCoeffs1 write:
    Cm    = 0.180947
    Cd    = 0.437211
    Cl    = 0.0480295
    Cl(f) = 0.204961
    Cl(r) = -0.156932

Time = 18s

smoothSolver:  Solving for Ux, Initial residual = 0.00318713, Final residual = 0.000239375, No Iterations 8
smoothSolver:  Solving for Uy, Initial residual = 0.0632088, Final residual = 0.00523658, No Iterations 7
smoothSolver:  Solving for Uz, Initial residual = 0.0681564, Final residual = 0.00565819, No Iterations 7
DICPCG:  Solving for p, Initial residual = 0.0209524, Final residual = 0.000196725, No Iterations 34
time step continuity errors : sum local = 0.000424311, global = 2.34483e-05, cumulative = 0.00183415
smoothSolver:  Solving for omega, Initial residual = 0.00039613, Final residual = 2.92389e-05, No Iterations 2
smoothSolver:  Solving for k, Initial residual = 0.0030067, Final residual = 0.000200109, No Iterations 2
ExecutionTime = 28.591 s  ClockTime = 29 s

forceCoeffs forceCoeffs1 write:
    Cm    = 0.180978
    Cd    = 0.436712
    Cl    = 0.0508048
    Cl(f) = 0.20638
    Cl(r) = -0.155576

Time = 19s

smoothSolver:  Solving for Ux, Initial residual = 0.00303105, Final residual = 0.000227658, No Iterations 8
smoothSolver:  Solving for Uy, Initial residual = 0.0596902, Final residual = 0.00491887, No Iterations 7
smoothSolver:  Solving for Uz, Initial residual = 0.063081, Final residual = 0.00524827, No Iterations 7
DICPCG:  Solving for p, Initial residual = 0.0202545, Final residual = 0.000192902, No Iterations 32
time step continuity errors : sum local = 0.00041617, global = 2.16805e-05, cumulative = 0.00185583
smoothSolver:  Solving for omega, Initial residual = 0.000378511, Final residual = 2.78668e-05, No Iterations 2
smoothSolver:  Solving for k, Initial residual = 0.00293232, Final residual = 0.000198089, No Iterations 2
ExecutionTime = 29.8269 s  ClockTime = 30 s

forceCoeffs forceCoeffs1 write:
    Cm    = 0.1806
    Cd    = 0.435457
    Cl    = 0.0519408
    Cl(f) = 0.206571
    Cl(r) = -0.15463

Time = 20s

smoothSolver:  Solving for Ux, Initial residual = 0.00288545, Final residual = 0.000216382, No Iterations 8
smoothSolver:  Solving for Uy, Initial residual = 0.0564151, Final residual = 0.00465448, No Iterations 7
smoothSolver:  Solving for Uz, Initial residual = 0.0595646, Final residual = 0.00499914, No Iterations 7
DICPCG:  Solving for p, Initial residual = 0.0197376, Final residual = 0.00019556, No Iterations 30
time step continuity errors : sum local = 0.000421917, global = 1.51747e-05, cumulative = 0.00187101
smoothSolver:  Solving for omega, Initial residual = 0.000364167, Final residual = 2.66729e-05, No Iterations 2
smoothSolver:  Solving for k, Initial residual = 0.00287164, Final residual = 0.000196327, No Iterations 2
ExecutionTime = 31.0385 s  ClockTime = 31 s

forceCoeffs forceCoeffs1 write:
    Cm    = 0.179864
    Cd    = 0.433426
    Cl    = 0.0525024
    Cl(f) = 0.206115
    Cl(r) = -0.153612

Time = 21s

smoothSolver:  Solving for Ux, Initial residual = 0.00276549, Final residual = 0.000208461, No Iterations 8
smoothSolver:  Solving for Uy, Initial residual = 0.0535945, Final residual = 0.00446153, No Iterations 7
smoothSolver:  Solving for Uz, Initial residual = 0.0569743, Final residual = 0.0048393, No Iterations 7
DICPCG:  Solving for p, Initial residual = 0.0192007, Final residual = 0.000182413, No Iterations 30
time step continuity errors : sum local = 0.000392736, global = 7.68721e-06, cumulative = 0.0018787
smoothSolver:  Solving for omega, Initial residual = 0.000350755, Final residual = 2.55024e-05, No Iterations 2
smoothSolver:  Solving for k, Initial residual = 0.00281513, Final residual = 0.000193243, No Iterations 2
ExecutionTime = 32.221 s  ClockTime = 32 s

forceCoeffs forceCoeffs1 write:
    Cm    = 0.179219
    Cd    = 0.431875
    Cl    = 0.0518648
    Cl(f) = 0.205152
    Cl(r) = -0.153287

Time = 22s

smoothSolver:  Solving for Ux, Initial residual = 0.00266709, Final residual = 0.000201223, No Iterations 8
smoothSolver:  Solving for Uy, Initial residual = 0.0512858, Final residual = 0.00432687, No Iterations 7
smoothSolver:  Solving for Uz, Initial residual = 0.0546272, Final residual = 0.00468348, No Iterations 7
DICPCG:  Solving for p, Initial residual = 0.0186106, Final residual = 0.000176028, No Iterations 29
time step continuity errors : sum local = 0.000377786, global = 2.24244e-06, cumulative = 0.00188094
smoothSolver:  Solving for omega, Initial residual = 0.000337501, Final residual = 2.43634e-05, No Iterations 2
smoothSolver:  Solving for k, Initial residual = 0.00274974, Final residual = 0.000189857, No Iterations 2
ExecutionTime = 33.4446 s  ClockTime = 34 s

forceCoeffs forceCoeffs1 write:
    Cm    = 0.17817
    Cd    = 0.430378
    Cl    = 0.0507836
    Cl(f) = 0.203562
    Cl(r) = -0.152779

Time = 23s

smoothSolver:  Solving for Ux, Initial residual = 0.00257273, Final residual = 0.000194396, No Iterations 8
smoothSolver:  Solving for Uy, Initial residual = 0.0494978, Final residual = 0.00424522, No Iterations 7
smoothSolver:  Solving for Uz, Initial residual = 0.0526125, Final residual = 0.00452769, No Iterations 7
DICPCG:  Solving for p, Initial residual = 0.0179804, Final residual = 0.000177396, No Iterations 29
time step continuity errors : sum local = 0.000379329, global = -8.727e-07, cumulative = 0.00188007
smoothSolver:  Solving for omega, Initial residual = 0.000323937, Final residual = 2.32743e-05, No Iterations 2
smoothSolver:  Solving for k, Initial residual = 0.00267764, Final residual = 0.000186378, No Iterations 2
ExecutionTime = 34.6222 s  ClockTime = 35 s

forceCoeffs forceCoeffs1 write:
    Cm    = 0.176642
    Cd    = 0.4288
    Cl    = 0.049489
    Cl(f) = 0.201386
    Cl(r) = -0.151897

Time = 24s

smoothSolver:  Solving for Ux, Initial residual = 0.00247613, Final residual = 0.00018648, No Iterations 8
smoothSolver:  Solving for Uy, Initial residual = 0.0485125, Final residual = 0.00419023, No Iterations 7
smoothSolver:  Solving for Uz, Initial residual = 0.0506527, Final residual = 0.00437294, No Iterations 7
DICPCG:  Solving for p, Initial residual = 0.0173473, Final residual = 0.000164802, No Iterations 30
time step continuity errors : sum local = 0.000350597, global = -4.7085e-06, cumulative = 0.00187536
smoothSolver:  Solving for omega, Initial residual = 0.000309595, Final residual = 2.22542e-05, No Iterations 2
smoothSolver:  Solving for k, Initial residual = 0.00262073, Final residual = 0.000183444, No Iterations 2
ExecutionTime = 35.7898 s  ClockTime = 36 s

forceCoeffs forceCoeffs1 write:
    Cm    = 0.174542
    Cd    = 0.426639
    Cl    = 0.0486253
    Cl(f) = 0.198854
    Cl(r) = -0.150229

Time = 25s

smoothSolver:  Solving for Ux, Initial residual = 0.00237671, Final residual = 0.000177903, No Iterations 8
smoothSolver:  Solving for Uy, Initial residual = 0.0473666, Final residual = 0.00408023, No Iterations 7
smoothSolver:  Solving for Uz, Initial residual = 0.0484876, Final residual = 0.00419801, No Iterations 7
DICPCG:  Solving for p, Initial residual = 0.0167464, Final residual = 0.000157828, No Iterations 30
time step continuity errors : sum local = 0.000333866, global = -6.39966e-06, cumulative = 0.00186896
smoothSolver:  Solving for omega, Initial residual = 0.000298206, Final residual = 2.14507e-05, No Iterations 2
smoothSolver:  Solving for k, Initial residual = 0.00258589, Final residual = 0.000182218, No Iterations 2
ExecutionTime = 36.9367 s  ClockTime = 37 s

forceCoeffs forceCoeffs1 write:
    Cm    = 0.171577
    Cd    = 0.4237
    Cl    = 0.0484994
    Cl(f) = 0.195827
    Cl(r) = -0.147328

Time = 26s

smoothSolver:  Solving for Ux, Initial residual = 0.00228014, Final residual = 0.000169561, No Iterations 8
smoothSolver:  Solving for Uy, Initial residual = 0.0461243, Final residual = 0.00394501, No Iterations 7
smoothSolver:  Solving for Uz, Initial residual = 0.0462993, Final residual = 0.00398787, No Iterations 7
DICPCG:  Solving for p, Initial residual = 0.0162414, Final residual = 0.000152217, No Iterations 30
time step continuity errors : sum local = 0.000319955, global = -8.76562e-06, cumulative = 0.00186019
smoothSolver:  Solving for omega, Initial residual = 0.000287696, Final residual = 2.0673e-05, No Iterations 2
smoothSolver:  Solving for k, Initial residual = 0.00255143, Final residual = 0.000180986, No Iterations 2
ExecutionTime = 38.1583 s  ClockTime = 38 s

forceCoeffs forceCoeffs1 write:
    Cm    = 0.168665
    Cd    = 0.421277
    Cl    = 0.0495941
    Cl(f) = 0.193462
    Cl(r) = -0.143868

Time = 27s

smoothSolver:  Solving for Ux, Initial residual = 0.00215535, Final residual = 0.000160458, No Iterations 8
smoothSolver:  Solving for Uy, Initial residual = 0.0443883, Final residual = 0.0037664, No Iterations 7
smoothSolver:  Solving for Uz, Initial residual = 0.0438007, Final residual = 0.00374437, No Iterations 7
DICPCG:  Solving for p, Initial residual = 0.0158124, Final residual = 0.000152473, No Iterations 30
time step continuity errors : sum local = 0.000318479, global = -1.25042e-05, cumulative = 0.00184769
smoothSolver:  Solving for omega, Initial residual = 0.000277357, Final residual = 1.9863e-05, No Iterations 2
smoothSolver:  Solving for k, Initial residual = 0.00251209, Final residual = 0.000178474, No Iterations 2
ExecutionTime = 39.3887 s  ClockTime = 40 s

forceCoeffs forceCoeffs1 write:
    Cm    = 0.165881
    Cd    = 0.419073
    Cl    = 0.051322
    Cl(f) = 0.191542
    Cl(r) = -0.14022

Time = 28s

smoothSolver:  Solving for Ux, Initial residual = 0.00203635, Final residual = 0.000152481, No Iterations 8
smoothSolver:  Solving for Uy, Initial residual = 0.0422549, Final residual = 0.00356203, No Iterations 7
smoothSolver:  Solving for Uz, Initial residual = 0.0409126, Final residual = 0.00346246, No Iterations 7
DICPCG:  Solving for p, Initial residual = 0.015408, Final residual = 0.000148577, No Iterations 29
time step continuity errors : sum local = 0.000308761, global = -1.62216e-05, cumulative = 0.00183147
smoothSolver:  Solving for omega, Initial residual = 0.000267521, Final residual = 1.91253e-05, No Iterations 2
smoothSolver:  Solving for k, Initial residual = 0.00247673, Final residual = 0.000176746, No Iterations 2
ExecutionTime = 40.6406 s  ClockTime = 41 s

forceCoeffs forceCoeffs1 write:
    Cm    = 0.163389
    Cd    = 0.417035
    Cl    = 0.0535966
    Cl(f) = 0.190187
    Cl(r) = -0.136591

Time = 29s

smoothSolver:  Solving for Ux, Initial residual = 0.001918, Final residual = 0.000143954, No Iterations 8
smoothSolver:  Solving for Uy, Initial residual = 0.039673, Final residual = 0.00330955, No Iterations 7
smoothSolver:  Solving for Uz, Initial residual = 0.0379372, Final residual = 0.00317889, No Iterations 7
DICPCG:  Solving for p, Initial residual = 0.0148822, Final residual = 0.000144419, No Iterations 28
time step continuity errors : sum local = 0.000298624, global = -2.22171e-05, cumulative = 0.00180925
smoothSolver:  Solving for omega, Initial residual = 0.000257744, Final residual = 1.84552e-05, No Iterations 2
smoothSolver:  Solving for k, Initial residual = 0.00245061, Final residual = 0.000175586, No Iterations 2
ExecutionTime = 41.853 s  ClockTime = 42 s

forceCoeffs forceCoeffs1 write:
    Cm    = 0.161332
    Cd    = 0.415146
    Cl    = 0.0561166
    Cl(f) = 0.18939
    Cl(r) = -0.133274

Time = 30s

smoothSolver:  Solving for Ux, Initial residual = 0.00181218, Final residual = 0.000180955, No Iterations 7
smoothSolver:  Solving for Uy, Initial residual = 0.037025, Final residual = 0.00305953, No Iterations 7
smoothSolver:  Solving for Uz, Initial residual = 0.0352103, Final residual = 0.0029184, No Iterations 7
DICPCG:  Solving for p, Initial residual = 0.014412, Final residual = 0.000137457, No Iterations 28
time step continuity errors : sum local = 0.000283023, global = -3.00049e-05, cumulative = 0.00177924
smoothSolver:  Solving for omega, Initial residual = 0.000248698, Final residual = 1.78313e-05, No Iterations 2
smoothSolver:  Solving for k, Initial residual = 0.00243564, Final residual = 0.000175343, No Iterations 2
ExecutionTime = 43.036 s  ClockTime = 43 s

forceCoeffs forceCoeffs1 write:
    Cm    = 0.159845
    Cd    = 0.413457
    Cl    = 0.0582681
    Cl(f) = 0.188979
    Cl(r) = -0.130711

Time = 31s

smoothSolver:  Solving for Ux, Initial residual = 0.00172077, Final residual = 0.000168952, No Iterations 7
smoothSolver:  Solving for Uy, Initial residual = 0.0345138, Final residual = 0.00280149, No Iterations 7
smoothSolver:  Solving for Uz, Initial residual = 0.0328968, Final residual = 0.00268031, No Iterations 7
DICPCG:  Solving for p, Initial residual = 0.0139354, Final residual = 0.000134803, No Iterations 28
time step continuity errors : sum local = 0.000276346, global = -3.80866e-05, cumulative = 0.00174116
smoothSolver:  Solving for omega, Initial residual = 0.000240211, Final residual = 1.72058e-05, No Iterations 2
smoothSolver:  Solving for k, Initial residual = 0.00242009, Final residual = 0.00017471, No Iterations 2
ExecutionTime = 44.2365 s  ClockTime = 44 s

forceCoeffs forceCoeffs1 write:
    Cm    = 0.158649
    Cd    = 0.411922
    Cl    = 0.0600612
    Cl(f) = 0.18868
    Cl(r) = -0.128619

Time = 32s

smoothSolver:  Solving for Ux, Initial residual = 0.00163094, Final residual = 0.000157186, No Iterations 7
smoothSolver:  Solving for Uy, Initial residual = 0.0324795, Final residual = 0.00258142, No Iterations 7
smoothSolver:  Solving for Uz, Initial residual = 0.0310626, Final residual = 0.00247787, No Iterations 7
DICPCG:  Solving for p, Initial residual = 0.0135162, Final residual = 0.000131628, No Iterations 29
time step continuity errors : sum local = 0.000268511, global = -4.3773e-05, cumulative = 0.00169738
smoothSolver:  Solving for omega, Initial residual = 0.000232266, Final residual = 1.65946e-05, No Iterations 2
smoothSolver:  Solving for k, Initial residual = 0.0023953, Final residual = 0.000172444, No Iterations 2
ExecutionTime = 45.4372 s  ClockTime = 46 s

forceCoeffs forceCoeffs1 write:
    Cm    = 0.157748
    Cd    = 0.410733
    Cl    = 0.0615467
    Cl(f) = 0.188522
    Cl(r) = -0.126975

Time = 33s

smoothSolver:  Solving for Ux, Initial residual = 0.00154344, Final residual = 0.000146027, No Iterations 7
smoothSolver:  Solving for Uy, Initial residual = 0.0309221, Final residual = 0.00240759, No Iterations 7
smoothSolver:  Solving for Uz, Initial residual = 0.0295736, Final residual = 0.00232299, No Iterations 7
DICPCG:  Solving for p, Initial residual = 0.013092, Final residual = 0.000129135, No Iterations 29
time step continuity errors : sum local = 0.000262034, global = -4.4101e-05, cumulative = 0.00165328
smoothSolver:  Solving for omega, Initial residual = 0.000225395, Final residual = 1.60828e-05, No Iterations 2
smoothSolver:  Solving for k, Initial residual = 0.00236516, Final residual = 0.000170351, No Iterations 2
ExecutionTime = 46.6397 s  ClockTime = 47 s

forceCoeffs forceCoeffs1 write:
    Cm    = 0.157158
    Cd    = 0.410061
    Cl    = 0.0626675
    Cl(f) = 0.188491
    Cl(r) = -0.125824

Time = 34s

smoothSolver:  Solving for Ux, Initial residual = 0.00145901, Final residual = 0.000136281, No Iterations 7
smoothSolver:  Solving for Uy, Initial residual = 0.0298114, Final residual = 0.0022887, No Iterations 7
smoothSolver:  Solving for Uz, Initial residual = 0.0282961, Final residual = 0.00217876, No Iterations 7
DICPCG:  Solving for p, Initial residual = 0.0127183, Final residual = 0.000125045, No Iterations 29
time step continuity errors : sum local = 0.000252587, global = -4.16179e-05, cumulative = 0.00161167
smoothSolver:  Solving for omega, Initial residual = 0.000218716, Final residual = 1.55663e-05, No Iterations 2
smoothSolver:  Solving for k, Initial residual = 0.00232312, Final residual = 0.000167682, No Iterations 2
ExecutionTime = 47.7968 s  ClockTime = 48 s

forceCoeffs forceCoeffs1 write:
    Cm    = 0.156876
    Cd    = 0.409744
    Cl    = 0.0635905
    Cl(f) = 0.188672
    Cl(r) = -0.125081

Time = 35s

smoothSolver:  Solving for Ux, Initial residual = 0.00138553, Final residual = 0.000128286, No Iterations 7
smoothSolver:  Solving for Uy, Initial residual = 0.0290035, Final residual = 0.00220625, No Iterations 7
smoothSolver:  Solving for Uz, Initial residual = 0.0270929, Final residual = 0.00203983, No Iterations 7
DICPCG:  Solving for p, Initial residual = 0.012352, Final residual = 0.000121405, No Iterations 28
time step continuity errors : sum local = 0.000244139, global = -3.81724e-05, cumulative = 0.00157349
smoothSolver:  Solving for omega, Initial residual = 0.000212216, Final residual = 1.51116e-05, No Iterations 2
smoothSolver:  Solving for k, Initial residual = 0.00228558, Final residual = 0.000165545, No Iterations 2
ExecutionTime = 48.9838 s  ClockTime = 49 s

forceCoeffs forceCoeffs1 write:
    Cm    = 0.156795
    Cd    = 0.409507
    Cl    = 0.0643716
    Cl(f) = 0.188981
    Cl(r) = -0.124609

Time = 36s

smoothSolver:  Solving for Ux, Initial residual = 0.00131823, Final residual = 0.00012079, No Iterations 7
smoothSolver:  Solving for Uy, Initial residual = 0.0282, Final residual = 0.00212564, No Iterations 7
smoothSolver:  Solving for Uz, Initial residual = 0.0259289, Final residual = 0.00191096, No Iterations 7
DICPCG:  Solving for p, Initial residual = 0.0119369, Final residual = 0.000114387, No Iterations 29
time step continuity errors : sum local = 0.000228866, global = -3.47624e-05, cumulative = 0.00153873
smoothSolver:  Solving for omega, Initial residual = 0.000205727, Final residual = 1.45947e-05, No Iterations 2
smoothSolver:  Solving for k, Initial residual = 0.00225464, Final residual = 0.000163589, No Iterations 2
ExecutionTime = 50.2091 s  ClockTime = 50 s

forceCoeffs forceCoeffs1 write:
    Cm    = 0.156817
    Cd    = 0.40925
    Cl    = 0.065328
    Cl(f) = 0.189481
    Cl(r) = -0.124153

Time = 37s

smoothSolver:  Solving for Ux, Initial residual = 0.0012535, Final residual = 0.000114131, No Iterations 7
smoothSolver:  Solving for Uy, Initial residual = 0.0274444, Final residual = 0.0020591, No Iterations 7
smoothSolver:  Solving for Uz, Initial residual = 0.0248559, Final residual = 0.00247058, No Iterations 6
DICPCG:  Solving for p, Initial residual = 0.011531, Final residual = 0.000114187, No Iterations 29
time step continuity errors : sum local = 0.000227289, global = -3.11951e-05, cumulative = 0.00150754
smoothSolver:  Solving for omega, Initial residual = 0.000199256, Final residual = 1.41097e-05, No Iterations 2
smoothSolver:  Solving for k, Initial residual = 0.00222704, Final residual = 0.000161131, No Iterations 2
ExecutionTime = 51.3703 s  ClockTime = 52 s

forceCoeffs forceCoeffs1 write:
    Cm    = 0.157015
    Cd    = 0.408968
    Cl    = 0.0658618
    Cl(f) = 0.189945
    Cl(r) = -0.124084

Time = 38s

smoothSolver:  Solving for Ux, Initial residual = 0.00119453, Final residual = 0.000108438, No Iterations 7
smoothSolver:  Solving for Uy, Initial residual = 0.026591, Final residual = 0.00197488, No Iterations 7
smoothSolver:  Solving for Uz, Initial residual = 0.023813, Final residual = 0.00237348, No Iterations 6
DICPCG:  Solving for p, Initial residual = 0.0111455, Final residual = 0.000110765, No Iterations 26
time step continuity errors : sum local = 0.000219358, global = -2.5865e-05, cumulative = 0.00148167
smoothSolver:  Solving for omega, Initial residual = 0.000192724, Final residual = 1.36217e-05, No Iterations 2
smoothSolver:  Solving for k, Initial residual = 0.00218412, Final residual = 0.000158424, No Iterations 2
ExecutionTime = 52.6599 s  ClockTime = 53 s

forceCoeffs forceCoeffs1 write:
    Cm    = 0.157452
    Cd    = 0.408702
    Cl    = 0.0656962
    Cl(f) = 0.1903
    Cl(r) = -0.124604

Time = 39s

smoothSolver:  Solving for Ux, Initial residual = 0.00113949, Final residual = 0.000102834, No Iterations 7
smoothSolver:  Solving for Uy, Initial residual = 0.02571, Final residual = 0.00189054, No Iterations 7
smoothSolver:  Solving for Uz, Initial residual = 0.0228661, Final residual = 0.00227822, No Iterations 6
DICPCG:  Solving for p, Initial residual = 0.0107274, Final residual = 0.000106001, No Iterations 31
time step continuity errors : sum local = 0.000209121, global = -2.56045e-05, cumulative = 0.00145607
smoothSolver:  Solving for omega, Initial residual = 0.000186323, Final residual = 1.31686e-05, No Iterations 2
smoothSolver:  Solving for k, Initial residual = 0.00213694, Final residual = 0.000155876, No Iterations 2
ExecutionTime = 53.9836 s  ClockTime = 54 s

forceCoeffs forceCoeffs1 write:
    Cm    = 0.157802
    Cd    = 0.408078
    Cl    = 0.0654607
    Cl(f) = 0.190532
    Cl(r) = -0.125072

Time = 40s

smoothSolver:  Solving for Ux, Initial residual = 0.00110008, Final residual = 9.80817e-05, No Iterations 7
smoothSolver:  Solving for Uy, Initial residual = 0.0250573, Final residual = 0.00184409, No Iterations 7
smoothSolver:  Solving for Uz, Initial residual = 0.0221149, Final residual = 0.00220515, No Iterations 6
DICPCG:  Solving for p, Initial residual = 0.0103476, Final residual = 9.73643e-05, No Iterations 21
time step continuity errors : sum local = 0.000191085, global = -1.99316e-05, cumulative = 0.00143613
smoothSolver:  Solving for omega, Initial residual = 0.000179699, Final residual = 1.27228e-05, No Iterations 2
smoothSolver:  Solving for k, Initial residual = 0.00208805, Final residual = 0.000153861, No Iterations 2
ExecutionTime = 55.1034 s  ClockTime = 55 s

forceCoeffs forceCoeffs1 write:
    Cm    = 0.158344
    Cd    = 0.407499
    Cl    = 0.0643339
    Cl(f) = 0.190511
    Cl(r) = -0.126177

Time = 41s

smoothSolver:  Solving for Ux, Initial residual = 0.00105575, Final residual = 9.44116e-05, No Iterations 7
smoothSolver:  Solving for Uy, Initial residual = 0.0240017, Final residual = 0.00175767, No Iterations 7
smoothSolver:  Solving for Uz, Initial residual = 0.0213137, Final residual = 0.00156749, No Iterations 7
DICPCG:  Solving for p, Initial residual = 0.00996892, Final residual = 9.5611e-05, No Iterations 26
time step continuity errors : sum local = 0.000187194, global = -1.99394e-05, cumulative = 0.00141619
smoothSolver:  Solving for omega, Initial residual = 0.000173309, Final residual = 1.22853e-05, No Iterations 2
smoothSolver:  Solving for k, Initial residual = 0.00204572, Final residual = 0.000151939, No Iterations 2
ExecutionTime = 56.3083 s  ClockTime = 56 s

forceCoeffs forceCoeffs1 write:
    Cm    = 0.158937
    Cd    = 0.407038
    Cl    = 0.0631408
    Cl(f) = 0.190507
    Cl(r) = -0.127366

Time = 42s

smoothSolver:  Solving for Ux, Initial residual = 0.00103236, Final residual = 9.28669e-05, No Iterations 7
smoothSolver:  Solving for Uy, Initial residual = 0.0233846, Final residual = 0.00172543, No Iterations 7
smoothSolver:  Solving for Uz, Initial residual = 0.0209061, Final residual = 0.00153785, No Iterations 7
DICPCG:  Solving for p, Initial residual = 0.00967419, Final residual = 9.21965e-05, No Iterations 25
time step continuity errors : sum local = 0.000179908, global = -1.98057e-05, cumulative = 0.00139639
smoothSolver:  Solving for omega, Initial residual = 0.000167991, Final residual = 1.1878e-05, No Iterations 2
smoothSolver:  Solving for k, Initial residual = 0.00201844, Final residual = 0.000150531, No Iterations 2
ExecutionTime = 57.4721 s  ClockTime = 58 s

forceCoeffs forceCoeffs1 write:
    Cm    = 0.15957
    Cd    = 0.40685
    Cl    = 0.0619875
    Cl(f) = 0.190564
    Cl(r) = -0.128577

Time = 43s

smoothSolver:  Solving for Ux, Initial residual = 0.00100835, Final residual = 9.12142e-05, No Iterations 7
smoothSolver:  Solving for Uy, Initial residual = 0.0224929, Final residual = 0.00166107, No Iterations 7
smoothSolver:  Solving for Uz, Initial residual = 0.0205317, Final residual = 0.00150463, No Iterations 7
DICPCG:  Solving for p, Initial residual = 0.0094013, Final residual = 9.27465e-05, No Iterations 24
time step continuity errors : sum local = 0.000180433, global = -1.97873e-05, cumulative = 0.0013766
smoothSolver:  Solving for omega, Initial residual = 0.000163175, Final residual = 1.14987e-05, No Iterations 2
smoothSolver:  Solving for k, Initial residual = 0.00200008, Final residual = 0.000149139, No Iterations 2
ExecutionTime = 58.6408 s  ClockTime = 59 s

forceCoeffs forceCoeffs1 write:
    Cm    = 0.160176
    Cd    = 0.406932
    Cl    = 0.0611281
    Cl(f) = 0.19074
    Cl(r) = -0.129612

Time = 44s

smoothSolver:  Solving for Ux, Initial residual = 0.000986174, Final residual = 8.9776e-05, No Iterations 7
smoothSolver:  Solving for Uy, Initial residual = 0.0214261, Final residual = 0.0015991, No Iterations 7
smoothSolver:  Solving for Uz, Initial residual = 0.0200409, Final residual = 0.00147901, No Iterations 7
DICPCG:  Solving for p, Initial residual = 0.00912926, Final residual = 8.71527e-05, No Iterations 24
time step continuity errors : sum local = 0.000169128, global = -1.94725e-05, cumulative = 0.00135713
smoothSolver:  Solving for omega, Initial residual = 0.00015888, Final residual = 1.11584e-05, No Iterations 2
smoothSolver:  Solving for k, Initial residual = 0.00198058, Final residual = 0.000147579, No Iterations 2
ExecutionTime = 59.8057 s  ClockTime = 60 s

forceCoeffs forceCoeffs1 write:
    Cm    = 0.160717
    Cd    = 0.407243
    Cl    = 0.0604301
    Cl(f) = 0.190932
    Cl(r) = -0.130502

Time = 45s

smoothSolver:  Solving for Ux, Initial residual = 0.000957726, Final residual = 8.84707e-05, No Iterations 7
smoothSolver:  Solving for Uy, Initial residual = 0.0203161, Final residual = 0.00153823, No Iterations 7
smoothSolver:  Solving for Uz, Initial residual = 0.0194679, Final residual = 0.00145544, No Iterations 7
DICPCG:  Solving for p, Initial residual = 0.00887324, Final residual = 8.68022e-05, No Iterations 24
time step continuity errors : sum local = 0.000168096, global = -1.90035e-05, cumulative = 0.00133813
smoothSolver:  Solving for omega, Initial residual = 0.000154557, Final residual = 1.08206e-05, No Iterations 2
smoothSolver:  Solving for k, Initial residual = 0.00195467, Final residual = 0.000145213, No Iterations 2
ExecutionTime = 60.9729 s  ClockTime = 61 s

forceCoeffs forceCoeffs1 write:
    Cm    = 0.161127
    Cd    = 0.40765
    Cl    = 0.0600427
    Cl(f) = 0.191148
    Cl(r) = -0.131105

Time = 46s

smoothSolver:  Solving for Ux, Initial residual = 0.000928934, Final residual = 8.68676e-05, No Iterations 7
smoothSolver:  Solving for Uy, Initial residual = 0.0192711, Final residual = 0.00148225, No Iterations 7
smoothSolver:  Solving for Uz, Initial residual = 0.0187427, Final residual = 0.00142021, No Iterations 7
DICPCG:  Solving for p, Initial residual = 0.00860856, Final residual = 8.0523e-05, No Iterations 26
time step continuity errors : sum local = 0.000155666, global = -1.84878e-05, cumulative = 0.00131964
smoothSolver:  Solving for omega, Initial residual = 0.000150205, Final residual = 1.04873e-05, No Iterations 2
smoothSolver:  Solving for k, Initial residual = 0.00191806, Final residual = 0.000142021, No Iterations 2
ExecutionTime = 62.1494 s  ClockTime = 62 s

forceCoeffs forceCoeffs1 write:
    Cm    = 0.161399
    Cd    = 0.408027
    Cl    = 0.0597875
    Cl(f) = 0.191293
    Cl(r) = -0.131505

Time = 47s

smoothSolver:  Solving for Ux, Initial residual = 0.000903198, Final residual = 8.60254e-05, No Iterations 7
smoothSolver:  Solving for Uy, Initial residual = 0.0184751, Final residual = 0.00143467, No Iterations 7
smoothSolver:  Solving for Uz, Initial residual = 0.0179181, Final residual = 0.00137282, No Iterations 7
DICPCG:  Solving for p, Initial residual = 0.0083018, Final residual = 8.23324e-05, No Iterations 29
time step continuity errors : sum local = 0.000158873, global = -1.40662e-05, cumulative = 0.00130557
smoothSolver:  Solving for omega, Initial residual = 0.000145284, Final residual = 1.01032e-05, No Iterations 2
smoothSolver:  Solving for k, Initial residual = 0.00186523, Final residual = 0.000138176, No Iterations 2
ExecutionTime = 63.3724 s  ClockTime = 64 s

forceCoeffs forceCoeffs1 write:
    Cm    = 0.161521
    Cd    = 0.408319
    Cl    = 0.0597066
    Cl(f) = 0.191374
    Cl(r) = -0.131667

Time = 48s

smoothSolver:  Solving for Ux, Initial residual = 0.000883324, Final residual = 8.58096e-05, No Iterations 7
smoothSolver:  Solving for Uy, Initial residual = 0.0178601, Final residual = 0.00141117, No Iterations 7
smoothSolver:  Solving for Uz, Initial residual = 0.0171742, Final residual = 0.0013381, No Iterations 7
DICPCG:  Solving for p, Initial residual = 0.00801242, Final residual = 7.88763e-05, No Iterations 29
time step continuity errors : sum local = 0.000151998, global = -1.13013e-05, cumulative = 0.00129427
smoothSolver:  Solving for omega, Initial residual = 0.000139641, Final residual = 9.73196e-06, No Iterations 2
smoothSolver:  Solving for k, Initial residual = 0.00180402, Final residual = 0.000134366, No Iterations 2
ExecutionTime = 64.5551 s  ClockTime = 65 s

forceCoeffs forceCoeffs1 write:
    Cm    = 0.161396
    Cd    = 0.408307
    Cl    = 0.0597037
    Cl(f) = 0.191248
    Cl(r) = -0.131544

Time = 49s

smoothSolver:  Solving for Ux, Initial residual = 0.000866392, Final residual = 8.53474e-05, No Iterations 7
smoothSolver:  Solving for Uy, Initial residual = 0.0174946, Final residual = 0.00139492, No Iterations 7
smoothSolver:  Solving for Uz, Initial residual = 0.0163474, Final residual = 0.00129796, No Iterations 7
DICPCG:  Solving for p, Initial residual = 0.00773331, Final residual = 7.35545e-05, No Iterations 26
time step continuity errors : sum local = 0.00014161, global = -1.27744e-05, cumulative = 0.0012815
smoothSolver:  Solving for omega, Initial residual = 0.000134448, Final residual = 9.401e-06, No Iterations 2
smoothSolver:  Solving for k, Initial residual = 0.00174743, Final residual = 0.000130839, No Iterations 2
ExecutionTime = 65.7052 s  ClockTime = 66 s

forceCoeffs forceCoeffs1 write:
    Cm    = 0.161018
    Cd    = 0.407953
    Cl    = 0.0598972
    Cl(f) = 0.190966
    Cl(r) = -0.131069

Time = 50s

smoothSolver:  Solving for Ux, Initial residual = 0.000849558, Final residual = 8.43613e-05, No Iterations 7
smoothSolver:  Solving for Uy, Initial residual = 0.017256, Final residual = 0.00137965, No Iterations 7
smoothSolver:  Solving for Uz, Initial residual = 0.0156494, Final residual = 0.00125678, No Iterations 7
DICPCG:  Solving for p, Initial residual = 0.007495, Final residual = 7.42374e-05, No Iterations 24
time step continuity errors : sum local = 0.000142851, global = -1.35903e-05, cumulative = 0.00126791
smoothSolver:  Solving for omega, Initial residual = 0.000129792, Final residual = 9.07931e-06, No Iterations 2
smoothSolver:  Solving for k, Initial residual = 0.0016908, Final residual = 0.000127181, No Iterations 2
ExecutionTime = 66.8108 s  ClockTime = 67 s

forceCoeffs forceCoeffs1 write:
    Cm    = 0.160517
    Cd    = 0.40742
    Cl    = 0.0601559
    Cl(f) = 0.190595
    Cl(r) = -0.130439

Time = 51s

smoothSolver:  Solving for Ux, Initial residual = 0.000831248, Final residual = 6.23783e-05, No Iterations 8
smoothSolver:  Solving for Uy, Initial residual = 0.0170028, Final residual = 0.00134513, No Iterations 7
smoothSolver:  Solving for Uz, Initial residual = 0.0150658, Final residual = 0.00120638, No Iterations 7
DICPCG:  Solving for p, Initial residual = 0.00723925, Final residual = 6.9499e-05, No Iterations 25
time step continuity errors : sum local = 0.000133675, global = -1.77053e-05, cumulative = 0.0012502
smoothSolver:  Solving for omega, Initial residual = 0.000125448, Final residual = 8.73543e-06, No Iterations 2
smoothSolver:  Solving for k, Initial residual = 0.00163918, Final residual = 0.000123675, No Iterations 2
ExecutionTime = 67.9799 s  ClockTime = 68 s

forceCoeffs forceCoeffs1 write:
    Cm    = 0.159795
    Cd    = 0.406784
    Cl    = 0.0605496
    Cl(f) = 0.19007
    Cl(r) = -0.12952

Time = 52s

smoothSolver:  Solving for Ux, Initial residual = 0.000807873, Final residual = 6.08645e-05, No Iterations 8
smoothSolver:  Solving for Uy, Initial residual = 0.0166526, Final residual = 0.00129428, No Iterations 7
smoothSolver:  Solving for Uz, Initial residual = 0.0145908, Final residual = 0.00115922, No Iterations 7
DICPCG:  Solving for p, Initial residual = 0.00698237, Final residual = 6.73459e-05, No Iterations 27
time step continuity errors : sum local = 0.000129472, global = -2.1986e-05, cumulative = 0.00122821
smoothSolver:  Solving for omega, Initial residual = 0.00012142, Final residual = 8.42569e-06, No Iterations 2
smoothSolver:  Solving for k, Initial residual = 0.00159579, Final residual = 0.000120576, No Iterations 2
ExecutionTime = 69.1775 s  ClockTime = 69 s

forceCoeffs forceCoeffs1 write:
    Cm    = 0.158973
    Cd    = 0.406206
    Cl    = 0.0611393
    Cl(f) = 0.189542
    Cl(r) = -0.128403

Time = 53s

smoothSolver:  Solving for Ux, Initial residual = 0.000782831, Final residual = 5.86322e-05, No Iterations 8
smoothSolver:  Solving for Uy, Initial residual = 0.0163037, Final residual = 0.00124305, No Iterations 7
smoothSolver:  Solving for Uz, Initial residual = 0.0141943, Final residual = 0.00111547, No Iterations 7
DICPCG:  Solving for p, Initial residual = 0.00676098, Final residual = 6.68916e-05, No Iterations 33
time step continuity errors : sum local = 0.000128516, global = -2.09575e-05, cumulative = 0.00120726
smoothSolver:  Solving for omega, Initial residual = 0.000117531, Final residual = 8.15432e-06, No Iterations 2
smoothSolver:  Solving for k, Initial residual = 0.0015543, Final residual = 0.000117933, No Iterations 2
ExecutionTime = 70.4033 s  ClockTime = 71 s

forceCoeffs forceCoeffs1 write:
    Cm    = 0.157974
    Cd    = 0.405532
    Cl    = 0.0621113
    Cl(f) = 0.18903
    Cl(r) = -0.126919

Time = 54s

smoothSolver:  Solving for Ux, Initial residual = 0.000756808, Final residual = 7.47518e-05, No Iterations 7
smoothSolver:  Solving for Uy, Initial residual = 0.0160015, Final residual = 0.00120035, No Iterations 7
smoothSolver:  Solving for Uz, Initial residual = 0.0138597, Final residual = 0.00107927, No Iterations 7
DICPCG:  Solving for p, Initial residual = 0.00657905, Final residual = 6.33093e-05, No Iterations 35
time step continuity errors : sum local = 0.000121443, global = -1.935e-05, cumulative = 0.00118791
smoothSolver:  Solving for omega, Initial residual = 0.000113917, Final residual = 7.91288e-06, No Iterations 2
smoothSolver:  Solving for k, Initial residual = 0.00151515, Final residual = 0.000115681, No Iterations 2
ExecutionTime = 71.6739 s  ClockTime = 72 s

forceCoeffs forceCoeffs1 write:
    Cm    = 0.157001
    Cd    = 0.404836
    Cl    = 0.0632474
    Cl(f) = 0.188625
    Cl(r) = -0.125378

Time = 55s

smoothSolver:  Solving for Ux, Initial residual = 0.000737438, Final residual = 7.12205e-05, No Iterations 7
smoothSolver:  Solving for Uy, Initial residual = 0.0156503, Final residual = 0.00116613, No Iterations 7
smoothSolver:  Solving for Uz, Initial residual = 0.0135044, Final residual = 0.00104897, No Iterations 7
DICPCG:  Solving for p, Initial residual = 0.00643161, Final residual = 6.10277e-05, No Iterations 34
time step continuity errors : sum local = 0.000116808, global = -1.90509e-05, cumulative = 0.00116886
smoothSolver:  Solving for omega, Initial residual = 0.000110473, Final residual = 7.6644e-06, No Iterations 2
smoothSolver:  Solving for k, Initial residual = 0.00148125, Final residual = 0.000113532, No Iterations 2
ExecutionTime = 72.892 s  ClockTime = 73 s

forceCoeffs forceCoeffs1 write:
    Cm    = 0.156175
    Cd    = 0.404386
    Cl    = 0.0643459
    Cl(f) = 0.188348
    Cl(r) = -0.124002

Time = 56s

smoothSolver:  Solving for Ux, Initial residual = 0.000715255, Final residual = 6.79486e-05, No Iterations 7
smoothSolver:  Solving for Uy, Initial residual = 0.0153759, Final residual = 0.00114077, No Iterations 7
smoothSolver:  Solving for Uz, Initial residual = 0.013206, Final residual = 0.00103293, No Iterations 7
DICPCG:  Solving for p, Initial residual = 0.00630042, Final residual = 6.09973e-05, No Iterations 33
time step continuity errors : sum local = 0.000116514, global = -1.91488e-05, cumulative = 0.00114971
smoothSolver:  Solving for omega, Initial residual = 0.000107239, Final residual = 7.43833e-06, No Iterations 2
smoothSolver:  Solving for k, Initial residual = 0.00144825, Final residual = 0.000111365, No Iterations 2
ExecutionTime = 74.1256 s  ClockTime = 74 s

forceCoeffs forceCoeffs1 write:
    Cm    = 0.155488
    Cd    = 0.40404
    Cl    = 0.0652625
    Cl(f) = 0.188119
    Cl(r) = -0.122857

Time = 57s

smoothSolver:  Solving for Ux, Initial residual = 0.000696884, Final residual = 6.50964e-05, No Iterations 7
smoothSolver:  Solving for Uy, Initial residual = 0.0151779, Final residual = 0.00110907, No Iterations 7
smoothSolver:  Solving for Uz, Initial residual = 0.0129736, Final residual = 0.0010135, No Iterations 7
DICPCG:  Solving for p, Initial residual = 0.00619743, Final residual = 6.058e-05, No Iterations 31
time step continuity errors : sum local = 0.000115499, global = -1.9171e-05, cumulative = 0.00113054
smoothSolver:  Solving for omega, Initial residual = 0.000104118, Final residual = 7.24162e-06, No Iterations 2
smoothSolver:  Solving for k, Initial residual = 0.0014166, Final residual = 0.000109289, No Iterations 2
ExecutionTime = 75.3477 s  ClockTime = 76 s

forceCoeffs forceCoeffs1 write:
    Cm    = 0.15488
    Cd    = 0.40381
    Cl    = 0.0658871
    Cl(f) = 0.187824
    Cl(r) = -0.121937

Time = 58s

smoothSolver:  Solving for Ux, Initial residual = 0.000678934, Final residual = 6.21629e-05, No Iterations 7
smoothSolver:  Solving for Uy, Initial residual = 0.0149306, Final residual = 0.00147816, No Iterations 6
smoothSolver:  Solving for Uz, Initial residual = 0.0128102, Final residual = 0.000989641, No Iterations 7
DICPCG:  Solving for p, Initial residual = 0.00610873, Final residual = 5.91219e-05, No Iterations 29
time step continuity errors : sum local = 0.000112544, global = -1.9433e-05, cumulative = 0.0011111
smoothSolver:  Solving for omega, Initial residual = 0.000101041, Final residual = 7.03011e-06, No Iterations 2
smoothSolver:  Solving for k, Initial residual = 0.00138962, Final residual = 0.000107083, No Iterations 2
ExecutionTime = 76.5339 s  ClockTime = 77 s

forceCoeffs forceCoeffs1 write:
    Cm    = 0.154321
    Cd    = 0.403625
    Cl    = 0.0660721
    Cl(f) = 0.187357
    Cl(r) = -0.121285

Time = 59s

smoothSolver:  Solving for Ux, Initial residual = 0.000660234, Final residual = 5.94635e-05, No Iterations 7
smoothSolver:  Solving for Uy, Initial residual = 0.0146963, Final residual = 0.00145294, No Iterations 6
smoothSolver:  Solving for Uz, Initial residual = 0.0126774, Final residual = 0.000961581, No Iterations 7
DICPCG:  Solving for p, Initial residual = 0.00603549, Final residual = 6.03378e-05, No Iterations 26
time step continuity errors : sum local = 0.0001147, global = -2.11429e-05, cumulative = 0.00108996
smoothSolver:  Solving for omega, Initial residual = 9.80322e-05, Final residual = 6.81997e-06, No Iterations 2
smoothSolver:  Solving for k, Initial residual = 0.00136755, Final residual = 0.000105126, No Iterations 2
ExecutionTime = 77.678 s  ClockTime = 78 s

forceCoeffs forceCoeffs1 write:
    Cm    = 0.153934
    Cd    = 0.40369
    Cl    = 0.0660572
    Cl(f) = 0.186962
    Cl(r) = -0.120905

Time = 60s

smoothSolver:  Solving for Ux, Initial residual = 0.000638217, Final residual = 5.72878e-05, No Iterations 7
smoothSolver:  Solving for Uy, Initial residual = 0.0144907, Final residual = 0.00142518, No Iterations 6
smoothSolver:  Solving for Uz, Initial residual = 0.0125484, Final residual = 0.000940448, No Iterations 7
DICPCG:  Solving for p, Initial residual = 0.00593911, Final residual = 5.81212e-05, No Iterations 26
time step continuity errors : sum local = 0.000110378, global = -2.00465e-05, cumulative = 0.00106991
smoothSolver:  Solving for omega, Initial residual = 9.52184e-05, Final residual = 6.61772e-06, No Iterations 2
smoothSolver:  Solving for k, Initial residual = 0.00134355, Final residual = 0.000103193, No Iterations 2
ExecutionTime = 78.8516 s  ClockTime = 79 s

forceCoeffs forceCoeffs1 write:
    Cm    = 0.153632
    Cd    = 0.403864
    Cl    = 0.0658321
    Cl(f) = 0.186548
    Cl(r) = -0.120716

Time = 61s

smoothSolver:  Solving for Ux, Initial residual = 0.000617782, Final residual = 5.55975e-05, No Iterations 7
smoothSolver:  Solving for Uy, Initial residual = 0.0141967, Final residual = 0.00139723, No Iterations 6
smoothSolver:  Solving for Uz, Initial residual = 0.0124106, Final residual = 0.000931643, No Iterations 7
DICPCG:  Solving for p, Initial residual = 0.00579761, Final residual = 5.56471e-05, No Iterations 26
time step continuity errors : sum local = 0.000105585, global = -1.92918e-05, cumulative = 0.00105062
smoothSolver:  Solving for omega, Initial residual = 9.24214e-05, Final residual = 6.42422e-06, No Iterations 2
smoothSolver:  Solving for k, Initial residual = 0.00131581, Final residual = 0.000101124, No Iterations 2
ExecutionTime = 80.0332 s  ClockTime = 80 s

forceCoeffs forceCoeffs1 write:
    Cm    = 0.15352
    Cd    = 0.404383
    Cl    = 0.0655655
    Cl(f) = 0.186302
    Cl(r) = -0.120737

Time = 62s

smoothSolver:  Solving for Ux, Initial residual = 0.000596425, Final residual = 5.40007e-05, No Iterations 7
smoothSolver:  Solving for Uy, Initial residual = 0.0138422, Final residual = 0.00137955, No Iterations 6
smoothSolver:  Solving for Uz, Initial residual = 0.0122173, Final residual = 0.000928644, No Iterations 7
DICPCG:  Solving for p, Initial residual = 0.00562296, Final residual = 5.29848e-05, No Iterations 26
time step continuity errors : sum local = 0.000100455, global = -1.87236e-05, cumulative = 0.0010319
smoothSolver:  Solving for omega, Initial residual = 8.96625e-05, Final residual = 6.24122e-06, No Iterations 2
smoothSolver:  Solving for k, Initial residual = 0.00128211, Final residual = 9.89066e-05, No Iterations 2
ExecutionTime = 81.2156 s  ClockTime = 81 s

forceCoeffs forceCoeffs1 write:
    Cm    = 0.15352
    Cd    = 0.405
    Cl    = 0.0653279
    Cl(f) = 0.186184
    Cl(r) = -0.120856

Time = 63s

smoothSolver:  Solving for Ux, Initial residual = 0.000576806, Final residual = 5.29873e-05, No Iterations 7
smoothSolver:  Solving for Uy, Initial residual = 0.0134551, Final residual = 0.00100525, No Iterations 7
smoothSolver:  Solving for Uz, Initial residual = 0.0118782, Final residual = 0.000919042, No Iterations 7
DICPCG:  Solving for p, Initial residual = 0.00542356, Final residual = 5.39112e-05, No Iterations 25
time step continuity errors : sum local = 0.000102135, global = -1.91153e-05, cumulative = 0.00101278
smoothSolver:  Solving for omega, Initial residual = 8.69394e-05, Final residual = 6.06252e-06, No Iterations 2
smoothSolver:  Solving for k, Initial residual = 0.00124557, Final residual = 9.65059e-05, No Iterations 2
ExecutionTime = 82.3845 s  ClockTime = 83 s

forceCoeffs forceCoeffs1 write:
    Cm    = 0.153643
    Cd    = 0.405794
    Cl    = 0.065229
    Cl(f) = 0.186258
    Cl(r) = -0.121029

Time = 64s

smoothSolver:  Solving for Ux, Initial residual = 0.000559578, Final residual = 5.2777e-05, No Iterations 7
smoothSolver:  Solving for Uy, Initial residual = 0.0129936, Final residual = 0.000981333, No Iterations 7
smoothSolver:  Solving for Uz, Initial residual = 0.0114766, Final residual = 0.000897932, No Iterations 7
DICPCG:  Solving for p, Initial residual = 0.00522136, Final residual = 5.15641e-05, No Iterations 27
time step continuity errors : sum local = 9.76374e-05, global = -1.8009e-05, cumulative = 0.000994774
smoothSolver:  Solving for omega, Initial residual = 8.46123e-05, Final residual = 5.90233e-06, No Iterations 2
smoothSolver:  Solving for k, Initial residual = 0.00121317, Final residual = 9.41881e-05, No Iterations 2
ExecutionTime = 83.5614 s  ClockTime = 84 s

forceCoeffs forceCoeffs1 write:
    Cm    = 0.153803
    Cd    = 0.406508
    Cl    = 0.0651073
    Cl(f) = 0.186357
    Cl(r) = -0.121249

Time = 65s

smoothSolver:  Solving for Ux, Initial residual = 0.000545287, Final residual = 5.24695e-05, No Iterations 7
smoothSolver:  Solving for Uy, Initial residual = 0.0125363, Final residual = 0.000951986, No Iterations 7
smoothSolver:  Solving for Uz, Initial residual = 0.0110428, Final residual = 0.000870341, No Iterations 7
DICPCG:  Solving for p, Initial residual = 0.00503249, Final residual = 4.84992e-05, No Iterations 29
time step continuity errors : sum local = 9.1781e-05, global = -1.42042e-05, cumulative = 0.00098057
smoothSolver:  Solving for omega, Initial residual = 8.23452e-05, Final residual = 5.7705e-06, No Iterations 2
smoothSolver:  Solving for k, Initial residual = 0.00118203, Final residual = 9.2005e-05, No Iterations 2
ExecutionTime = 84.7329 s  ClockTime = 85 s

forceCoeffs forceCoeffs1 write:
    Cm    = 0.154038
    Cd    = 0.407209
    Cl    = 0.0649821
    Cl(f) = 0.186529
    Cl(r) = -0.121547

Time = 66s

smoothSolver:  Solving for Ux, Initial residual = 0.000530936, Final residual = 5.179e-05, No Iterations 7
smoothSolver:  Solving for Uy, Initial residual = 0.0120465, Final residual = 0.000925184, No Iterations 7
smoothSolver:  Solving for Uz, Initial residual = 0.0106675, Final residual = 0.000842846, No Iterations 7
DICPCG:  Solving for p, Initial residual = 0.00487149, Final residual = 4.81751e-05, No Iterations 28
time step continuity errors : sum local = 9.11265e-05, global = -1.15233e-05, cumulative = 0.000969047
smoothSolver:  Solving for omega, Initial residual = 8.04015e-05, Final residual = 5.64115e-06, No Iterations 2
smoothSolver:  Solving for k, Initial residual = 0.00115073, Final residual = 8.9802e-05, No Iterations 2
ExecutionTime = 85.9138 s  ClockTime = 86 s

forceCoeffs forceCoeffs1 write:
    Cm    = 0.154299
    Cd    = 0.407743
    Cl    = 0.0646757
    Cl(f) = 0.186637
    Cl(r) = -0.121962

Time = 67s

smoothSolver:  Solving for Ux, Initial residual = 0.000516314, Final residual = 5.10821e-05, No Iterations 7
smoothSolver:  Solving for Uy, Initial residual = 0.0115385, Final residual = 0.000898457, No Iterations 7
smoothSolver:  Solving for Uz, Initial residual = 0.0102852, Final residual = 0.000814539, No Iterations 7
DICPCG:  Solving for p, Initial residual = 0.00473401, Final residual = 4.40907e-05, No Iterations 29
time step continuity errors : sum local = 8.33889e-05, global = -7.97652e-06, cumulative = 0.00096107
smoothSolver:  Solving for omega, Initial residual = 7.85813e-05, Final residual = 5.50849e-06, No Iterations 2
smoothSolver:  Solving for k, Initial residual = 0.0011189, Final residual = 8.75873e-05, No Iterations 2
ExecutionTime = 87.1086 s  ClockTime = 87 s

forceCoeffs forceCoeffs1 write:
    Cm    = 0.154728
    Cd    = 0.40844
    Cl    = 0.0641839
    Cl(f) = 0.18682
    Cl(r) = -0.122636

Time = 68s

smoothSolver:  Solving for Ux, Initial residual = 0.000504043, Final residual = 3.78831e-05, No Iterations 8
smoothSolver:  Solving for Uy, Initial residual = 0.011146, Final residual = 0.000875785, No Iterations 7
smoothSolver:  Solving for Uz, Initial residual = 0.00994288, Final residual = 0.000789069, No Iterations 7
DICPCG:  Solving for p, Initial residual = 0.0046267, Final residual = 4.37133e-05, No Iterations 28
time step continuity errors : sum local = 8.2689e-05, global = -5.72039e-06, cumulative = 0.00095535
smoothSolver:  Solving for omega, Initial residual = 7.69788e-05, Final residual = 5.37637e-06, No Iterations 2
smoothSolver:  Solving for k, Initial residual = 0.00108815, Final residual = 8.53003e-05, No Iterations 2
ExecutionTime = 88.2684 s  ClockTime = 88 s

forceCoeffs forceCoeffs1 write:
    Cm    = 0.155195
    Cd    = 0.409145
    Cl    = 0.0634832
    Cl(f) = 0.186936
    Cl(r) = -0.123453

Time = 69s

smoothSolver:  Solving for Ux, Initial residual = 0.000492507, Final residual = 3.69018e-05, No Iterations 8
smoothSolver:  Solving for Uy, Initial residual = 0.010873, Final residual = 0.000856977, No Iterations 7
smoothSolver:  Solving for Uz, Initial residual = 0.00961746, Final residual = 0.00075968, No Iterations 7
DICPCG:  Solving for p, Initial residual = 0.00451128, Final residual = 4.17879e-05, No Iterations 28
time step continuity errors : sum local = 7.90788e-05, global = -3.21881e-06, cumulative = 0.000952131
smoothSolver:  Solving for omega, Initial residual = 7.54445e-05, Final residual = 5.25732e-06, No Iterations 2
smoothSolver:  Solving for k, Initial residual = 0.00105855, Final residual = 8.30566e-05, No Iterations 2
ExecutionTime = 89.4976 s  ClockTime = 90 s

forceCoeffs forceCoeffs1 write:
    Cm    = 0.155697
    Cd    = 0.40996
    Cl    = 0.0628753
    Cl(f) = 0.187135
    Cl(r) = -0.12426

Time = 70s

smoothSolver:  Solving for Ux, Initial residual = 0.000482194, Final residual = 4.75786e-05, No Iterations 7
smoothSolver:  Solving for Uy, Initial residual = 0.0105978, Final residual = 0.000833515, No Iterations 7
smoothSolver:  Solving for Uz, Initial residual = 0.00932159, Final residual = 0.000726158, No Iterations 7
DICPCG:  Solving for p, Initial residual = 0.00441395, Final residual = 4.3832e-05, No Iterations 25
time step continuity errors : sum local = 8.29966e-05, global = -2.17237e-06, cumulative = 0.000949959
smoothSolver:  Solving for omega, Initial residual = 7.40075e-05, Final residual = 5.15858e-06, No Iterations 2
smoothSolver:  Solving for k, Initial residual = 0.00103086, Final residual = 8.098e-05, No Iterations 2
ExecutionTime = 90.6721 s  ClockTime = 91 s

forceCoeffs forceCoeffs1 write:
    Cm    = 0.156051
    Cd    = 0.410545
    Cl    = 0.0624104
    Cl(f) = 0.187256
    Cl(r) = -0.124846

Time = 71s

smoothSolver:  Solving for Ux, Initial residual = 0.000468952, Final residual = 4.51341e-05, No Iterations 7
smoothSolver:  Solving for Uy, Initial residual = 0.0102935, Final residual = 0.000792112, No Iterations 7
smoothSolver:  Solving for Uz, Initial residual = 0.00898713, Final residual = 0.000686746, No Iterations 7
DICPCG:  Solving for p, Initial residual = 0.00431272, Final residual = 4.10657e-05, No Iterations 27
time step continuity errors : sum local = 7.78157e-05, global = 9.90856e-07, cumulative = 0.00095095
smoothSolver:  Solving for omega, Initial residual = 7.23878e-05, Final residual = 5.04236e-06, No Iterations 2
smoothSolver:  Solving for k, Initial residual = 0.00100483, Final residual = 7.89834e-05, No Iterations 2
ExecutionTime = 91.8477 s  ClockTime = 92 s

forceCoeffs forceCoeffs1 write:
    Cm    = 0.156242
    Cd    = 0.410975
    Cl    = 0.0622495
    Cl(f) = 0.187367
    Cl(r) = -0.125117

Time = 72s

smoothSolver:  Solving for Ux, Initial residual = 0.00045171, Final residual = 4.23155e-05, No Iterations 7
smoothSolver:  Solving for Uy, Initial residual = 0.00999854, Final residual = 0.000744208, No Iterations 7
smoothSolver:  Solving for Uz, Initial residual = 0.00862368, Final residual = 0.000643616, No Iterations 7
DICPCG:  Solving for p, Initial residual = 0.00422113, Final residual = 4.10069e-05, No Iterations 25
time step continuity errors : sum local = 7.77706e-05, global = 1.91031e-06, cumulative = 0.00095286
smoothSolver:  Solving for omega, Initial residual = 7.03094e-05, Final residual = 4.90418e-06, No Iterations 2
smoothSolver:  Solving for k, Initial residual = 0.00097796, Final residual = 7.69437e-05, No Iterations 2
ExecutionTime = 93.0226 s  ClockTime = 93 s

forceCoeffs forceCoeffs1 write:
    Cm    = 0.156264
    Cd    = 0.411149
    Cl    = 0.0623297
    Cl(f) = 0.187429
    Cl(r) = -0.125099

Time = 73s

smoothSolver:  Solving for Ux, Initial residual = 0.000429671, Final residual = 3.89434e-05, No Iterations 7
smoothSolver:  Solving for Uy, Initial residual = 0.00959709, Final residual = 0.000943738, No Iterations 6
smoothSolver:  Solving for Uz, Initial residual = 0.00824922, Final residual = 0.000820125, No Iterations 6
DICPCG:  Solving for p, Initial residual = 0.00410996, Final residual = 4.06721e-05, No Iterations 25
time step continuity errors : sum local = 7.71985e-05, global = 3.11112e-06, cumulative = 0.000955971
smoothSolver:  Solving for omega, Initial residual = 6.80086e-05, Final residual = 4.76343e-06, No Iterations 2
smoothSolver:  Solving for k, Initial residual = 0.000950697, Final residual = 7.50941e-05, No Iterations 2
ExecutionTime = 94.1537 s  ClockTime = 94 s

forceCoeffs forceCoeffs1 write:
    Cm    = 0.156207
    Cd    = 0.41123
    Cl    = 0.0625932
    Cl(f) = 0.187504
    Cl(r) = -0.12491

Time = 74s

smoothSolver:  Solving for Ux, Initial residual = 0.00040859, Final residual = 3.60426e-05, No Iterations 7
smoothSolver:  Solving for Uy, Initial residual = 0.00922493, Final residual = 0.000886821, No Iterations 6
smoothSolver:  Solving for Uz, Initial residual = 0.00793692, Final residual = 0.000773478, No Iterations 6
DICPCG:  Solving for p, Initial residual = 0.00399465, Final residual = 3.95425e-05, No Iterations 24
time step continuity errors : sum local = 7.51117e-05, global = 3.56651e-06, cumulative = 0.000959538
smoothSolver:  Solving for omega, Initial residual = 6.58976e-05, Final residual = 4.62097e-06, No Iterations 2
smoothSolver:  Solving for k, Initial residual = 0.000924886, Final residual = 7.32265e-05, No Iterations 2
ExecutionTime = 95.3216 s  ClockTime = 96 s

forceCoeffs forceCoeffs1 write:
    Cm    = 0.156116
    Cd    = 0.411245
    Cl    = 0.0628816
    Cl(f) = 0.187557
    Cl(r) = -0.124676

Time = 75s

smoothSolver:  Solving for Ux, Initial residual = 0.000389587, Final residual = 3.3816e-05, No Iterations 7
smoothSolver:  Solving for Uy, Initial residual = 0.00887926, Final residual = 0.000832787, No Iterations 6
smoothSolver:  Solving for Uz, Initial residual = 0.00765674, Final residual = 0.000732545, No Iterations 6
DICPCG:  Solving for p, Initial residual = 0.00387968, Final residual = 3.62554e-05, No Iterations 23
time step continuity errors : sum local = 6.89167e-05, global = 3.7213e-06, cumulative = 0.000963259
smoothSolver:  Solving for omega, Initial residual = 6.42848e-05, Final residual = 4.49173e-06, No Iterations 2
smoothSolver:  Solving for k, Initial residual = 0.00090282, Final residual = 7.14488e-05, No Iterations 2
ExecutionTime = 96.4403 s  ClockTime = 97 s

forceCoeffs forceCoeffs1 write:
    Cm    = 0.15609
    Cd    = 0.41139
    Cl    = 0.0631753
    Cl(f) = 0.187677
    Cl(r) = -0.124502

Time = 76s

smoothSolver:  Solving for Ux, Initial residual = 0.000375451, Final residual = 3.24049e-05, No Iterations 7
smoothSolver:  Solving for Uy, Initial residual = 0.00857039, Final residual = 0.000795572, No Iterations 6
smoothSolver:  Solving for Uz, Initial residual = 0.00747004, Final residual = 0.000693266, No Iterations 6
DICPCG:  Solving for p, Initial residual = 0.00378453, Final residual = 3.43531e-05, No Iterations 23
time step continuity errors : sum local = 6.53375e-05, global = 3.52883e-06, cumulative = 0.000966788
smoothSolver:  Solving for omega, Initial residual = 6.27997e-05, Final residual = 4.37221e-06, No Iterations 2
smoothSolver:  Solving for k, Initial residual = 0.000884073, Final residual = 6.98618e-05, No Iterations 2
ExecutionTime = 97.5743 s  ClockTime = 98 s

forceCoeffs forceCoeffs1 write:
    Cm    = 0.15618
    Cd    = 0.411736
    Cl    = 0.0634868
    Cl(f) = 0.187923
    Cl(r) = -0.124437

Time = 77s

smoothSolver:  Solving for Ux, Initial residual = 0.000363656, Final residual = 3.12458e-05, No Iterations 7
smoothSolver:  Solving for Uy, Initial residual = 0.00836302, Final residual = 0.000776006, No Iterations 6
smoothSolver:  Solving for Uz, Initial residual = 0.00734437, Final residual = 0.000668849, No Iterations 6
DICPCG:  Solving for p, Initial residual = 0.00370203, Final residual = 3.32595e-05, No Iterations 23
time step continuity errors : sum local = 6.32945e-05, global = 2.67071e-06, cumulative = 0.000969458
smoothSolver:  Solving for omega, Initial residual = 6.13533e-05, Final residual = 4.27375e-06, No Iterations 2
smoothSolver:  Solving for k, Initial residual = 0.000866793, Final residual = 6.85797e-05, No Iterations 2
ExecutionTime = 98.6901 s  ClockTime = 99 s

forceCoeffs forceCoeffs1 write:
    Cm    = 0.156308
    Cd    = 0.412211
    Cl    = 0.0637558
    Cl(f) = 0.188185
    Cl(r) = -0.12443

Time = 78s

smoothSolver:  Solving for Ux, Initial residual = 0.000354866, Final residual = 3.01332e-05, No Iterations 7
smoothSolver:  Solving for Uy, Initial residual = 0.00819911, Final residual = 0.000765455, No Iterations 6
smoothSolver:  Solving for Uz, Initial residual = 0.00722982, Final residual = 0.000655399, No Iterations 6
DICPCG:  Solving for p, Initial residual = 0.00363087, Final residual = 3.49527e-05, No Iterations 23
time step continuity errors : sum local = 6.65511e-05, global = 1.18751e-06, cumulative = 0.000970646
smoothSolver:  Solving for omega, Initial residual = 6.00554e-05, Final residual = 4.18536e-06, No Iterations 2
smoothSolver:  Solving for k, Initial residual = 0.000848771, Final residual = 6.72903e-05, No Iterations 2
ExecutionTime = 99.8167 s  ClockTime = 100 s

forceCoeffs forceCoeffs1 write:
    Cm    = 0.15649
    Cd    = 0.412757
    Cl    = 0.0641583
    Cl(f) = 0.188569
    Cl(r) = -0.124411

Time = 79s

smoothSolver:  Solving for Ux, Initial residual = 0.000346583, Final residual = 2.93524e-05, No Iterations 7
smoothSolver:  Solving for Uy, Initial residual = 0.00802585, Final residual = 0.000751528, No Iterations 6
smoothSolver:  Solving for Uz, Initial residual = 0.00708761, Final residual = 0.000647648, No Iterations 6
DICPCG:  Solving for p, Initial residual = 0.00356192, Final residual = 3.24711e-05, No Iterations 24
time step continuity errors : sum local = 6.1854e-05, global = -5.91396e-07, cumulative = 0.000970054
smoothSolver:  Solving for omega, Initial residual = 5.88106e-05, Final residual = 4.08819e-06, No Iterations 2
smoothSolver:  Solving for k, Initial residual = 0.000830435, Final residual = 6.5944e-05, No Iterations 2
ExecutionTime = 100.964 s  ClockTime = 101 s

forceCoeffs forceCoeffs1 write:
    Cm    = 0.156609
    Cd    = 0.413211
    Cl    = 0.0646141
    Cl(f) = 0.188916
    Cl(r) = -0.124302

Time = 80s

smoothSolver:  Solving for Ux, Initial residual = 0.000338219, Final residual = 2.88939e-05, No Iterations 7
smoothSolver:  Solving for Uy, Initial residual = 0.00787221, Final residual = 0.000742044, No Iterations 6
smoothSolver:  Solving for Uz, Initial residual = 0.00695171, Final residual = 0.000645386, No Iterations 6
DICPCG:  Solving for p, Initial residual = 0.00349612, Final residual = 3.25116e-05, No Iterations 24
time step continuity errors : sum local = 6.19541e-05, global = -2.18437e-06, cumulative = 0.00096787
smoothSolver:  Solving for omega, Initial residual = 5.74567e-05, Final residual = 3.99879e-06, No Iterations 2
smoothSolver:  Solving for k, Initial residual = 0.000812852, Final residual = 6.45776e-05, No Iterations 2
ExecutionTime = 102.117 s  ClockTime = 102 s

forceCoeffs forceCoeffs1 write:
    Cm    = 0.156722
    Cd    = 0.413554
    Cl    = 0.065078
    Cl(f) = 0.189261
    Cl(r) = -0.124183

Time = 81s

smoothSolver:  Solving for Ux, Initial residual = 0.000330839, Final residual = 2.86231e-05, No Iterations 7
smoothSolver:  Solving for Uy, Initial residual = 0.00772809, Final residual = 0.00073541, No Iterations 6
smoothSolver:  Solving for Uz, Initial residual = 0.00682379, Final residual = 0.000643065, No Iterations 6
DICPCG:  Solving for p, Initial residual = 0.00343289, Final residual = 3.22533e-05, No Iterations 24
time step continuity errors : sum local = 6.14811e-05, global = -2.83298e-06, cumulative = 0.000965037
smoothSolver:  Solving for omega, Initial residual = 5.62725e-05, Final residual = 3.9157e-06, No Iterations 2
smoothSolver:  Solving for k, Initial residual = 0.000796754, Final residual = 6.32665e-05, No Iterations 2
ExecutionTime = 103.229 s  ClockTime = 103 s

forceCoeffs forceCoeffs1 write:
    Cm    = 0.156822
    Cd    = 0.413806
    Cl    = 0.0654846
    Cl(f) = 0.189564
    Cl(r) = -0.124079

Time = 82s

smoothSolver:  Solving for Ux, Initial residual = 0.000324362, Final residual = 2.83379e-05, No Iterations 7
smoothSolver:  Solving for Uy, Initial residual = 0.00758529, Final residual = 0.000727967, No Iterations 6
smoothSolver:  Solving for Uz, Initial residual = 0.0067054, Final residual = 0.000640623, No Iterations 6
DICPCG:  Solving for p, Initial residual = 0.00336063, Final residual = 3.34261e-05, No Iterations 25
time step continuity errors : sum local = 6.37369e-05, global = -1.32907e-06, cumulative = 0.000963708
smoothSolver:  Solving for omega, Initial residual = 5.50476e-05, Final residual = 3.83426e-06, No Iterations 2
smoothSolver:  Solving for k, Initial residual = 0.000781288, Final residual = 6.20088e-05, No Iterations 2
ExecutionTime = 104.377 s  ClockTime = 105 s

forceCoeffs forceCoeffs1 write:
    Cm    = 0.156955
    Cd    = 0.413974
    Cl    = 0.0657261
    Cl(f) = 0.189818
    Cl(r) = -0.124092

Time = 83s

smoothSolver:  Solving for Ux, Initial residual = 0.000318619, Final residual = 2.81269e-05, No Iterations 7
smoothSolver:  Solving for Uy, Initial residual = 0.00742254, Final residual = 0.000711334, No Iterations 6
smoothSolver:  Solving for Uz, Initial residual = 0.00658599, Final residual = 0.000634663, No Iterations 6
DICPCG:  Solving for p, Initial residual = 0.00327582, Final residual = 3.26944e-05, No Iterations 35
[...]
    Cl    = 0.0650413
    Cl(f) = 0.191763
    Cl(r) = -0.126722

Time = 480s

smoothSolver:  Solving for Ux, Initial residual = 0.000321907, Final residual = 2.43806e-05, No Iterations 8
smoothSolver:  Solving for Uy, Initial residual = 0.00688213, Final residual = 0.000599382, No Iterations 7
smoothSolver:  Solving for Uz, Initial residual = 0.0061561, Final residual = 0.000557847, No Iterations 7
DICPCG:  Solving for p, Initial residual = 0.00233399, Final residual = 2.3197e-05, No Iterations 30
time step continuity errors : sum local = 4.38865e-05, global = 7.89793e-06, cumulative = 0.00107131
smoothSolver:  Solving for omega, Initial residual = 2.81347e-05, Final residual = 1.56351e-06, No Iterations 2
smoothSolver:  Solving for k, Initial residual = 0.000252937, Final residual = 1.49616e-05, No Iterations 2
ExecutionTime = 585.65 s  ClockTime = 586 s

forceCoeffs forceCoeffs1 write:
    Cm    = 0.159072
    Cd    = 0.416396
    Cl    = 0.0646579
    Cl(f) = 0.191401
    Cl(r) = -0.126743

Time = 481s

smoothSolver:  Solving for Ux, Initial residual = 0.000317684, Final residual = 2.3964e-05, No Iterations 8
smoothSolver:  Solving for Uy, Initial residual = 0.00684127, Final residual = 0.000602818, No Iterations 7
smoothSolver:  Solving for Uz, Initial residual = 0.00609467, Final residual = 0.000560387, No Iterations 7
DICPCG:  Solving for p, Initial residual = 0.00233685, Final residual = 2.28914e-05, No Iterations 28
time step continuity errors : sum local = 4.3322e-05, global = 8.79501e-06, cumulative = 0.0010801
smoothSolver:  Solving for omega, Initial residual = 2.8426e-05, Final residual = 1.60696e-06, No Iterations 2
smoothSolver:  Solving for k, Initial residual = 0.000248085, Final residual = 1.5077e-05, No Iterations 2
ExecutionTime = 586.861 s  ClockTime = 588 s

forceCoeffs forceCoeffs1 write:
    Cm    = 0.158846
    Cd    = 0.416116
    Cl    = 0.064238
    Cl(f) = 0.190965
    Cl(r) = -0.126727

Time = 482s

smoothSolver:  Solving for Ux, Initial residual = 0.000311738, Final residual = 2.33358e-05, No Iterations 8
smoothSolver:  Solving for Uy, Initial residual = 0.00680312, Final residual = 0.000595784, No Iterations 7
smoothSolver:  Solving for Uz, Initial residual = 0.00602104, Final residual = 0.000553857, No Iterations 7
DICPCG:  Solving for p, Initial residual = 0.00233316, Final residual = 2.26849e-05, No Iterations 29
time step continuity errors : sum local = 4.29402e-05, global = 7.65247e-06, cumulative = 0.00108776
smoothSolver:  Solving for omega, Initial residual = 2.8402e-05, Final residual = 1.62369e-06, No Iterations 2
smoothSolver:  Solving for k, Initial residual = 0.000242532, Final residual = 1.49264e-05, No Iterations 2
ExecutionTime = 588.052 s  ClockTime = 589 s

forceCoeffs forceCoeffs1 write:
    Cm    = 0.158677
    Cd    = 0.41588
    Cl    = 0.0638533
    Cl(f) = 0.190603
    Cl(r) = -0.12675

Time = 483s

smoothSolver:  Solving for Ux, Initial residual = 0.000307305, Final residual = 3.05171e-05, No Iterations 7
smoothSolver:  Solving for Uy, Initial residual = 0.00678031, Final residual = 0.000585092, No Iterations 7
smoothSolver:  Solving for Uz, Initial residual = 0.00593463, Final residual = 0.000541723, No Iterations 7
DICPCG:  Solving for p, Initial residual = 0.00233604, Final residual = 2.23367e-05, No Iterations 36
time step continuity errors : sum local = 4.22932e-05, global = 2.92907e-06, cumulative = 0.00109069
smoothSolver:  Solving for omega, Initial residual = 2.81085e-05, Final residual = 1.61489e-06, No Iterations 2
smoothSolver:  Solving for k, Initial residual = 0.000235856, Final residual = 1.46211e-05, No Iterations 2
ExecutionTime = 589.325 s  ClockTime = 590 s

forceCoeffs forceCoeffs1 write:
    Cm    = 0.158512
    Cd    = 0.415625
    Cl    = 0.0634424
    Cl(f) = 0.190233
    Cl(r) = -0.126791

Time = 484s

smoothSolver:  Solving for Ux, Initial residual = 0.000305686, Final residual = 3.02901e-05, No Iterations 7
smoothSolver:  Solving for Uy, Initial residual = 0.00681354, Final residual = 0.000576193, No Iterations 7
smoothSolver:  Solving for Uz, Initial residual = 0.0059111, Final residual = 0.000530064, No Iterations 7
DICPCG:  Solving for p, Initial residual = 0.00233468, Final residual = 2.25152e-05, No Iterations 37
time step continuity errors : sum local = 4.2649e-05, global = -6.74956e-07, cumulative = 0.00109001
smoothSolver:  Solving for omega, Initial residual = 2.77572e-05, Final residual = 1.59887e-06, No Iterations 2
smoothSolver:  Solving for k, Initial residual = 0.000228432, Final residual = 1.42124e-05, No Iterations 2
ExecutionTime = 590.635 s  ClockTime = 591 s

forceCoeffs forceCoeffs1 write:
    Cm    = 0.158517
    Cd    = 0.415627
    Cl    = 0.0630876
    Cl(f) = 0.190061
    Cl(r) = -0.126973

Time = 485s

smoothSolver:  Solving for Ux, Initial residual = 0.00030527, Final residual = 2.29277e-05, No Iterations 8
smoothSolver:  Solving for Uy, Initial residual = 0.0068022, Final residual = 0.000573246, No Iterations 7
smoothSolver:  Solving for Uz, Initial residual = 0.00586372, Final residual = 0.000519678, No Iterations 7
DICPCG:  Solving for p, Initial residual = 0.00233576, Final residual = 2.24998e-05, No Iterations 36
time step continuity errors : sum local = 4.26257e-05, global = -2.6497e-06, cumulative = 0.00108736
smoothSolver:  Solving for omega, Initial residual = 2.76916e-05, Final residual = 1.57727e-06, No Iterations 2
smoothSolver:  Solving for k, Initial residual = 0.000222187, Final residual = 1.38016e-05, No Iterations 2
ExecutionTime = 591.883 s  ClockTime = 593 s

forceCoeffs forceCoeffs1 write:
    Cm    = 0.158618
    Cd    = 0.415809
    Cl    = 0.0627625
    Cl(f) = 0.189999
    Cl(r) = -0.127236

Time = 486s

smoothSolver:  Solving for Ux, Initial residual = 0.000303141, Final residual = 2.29989e-05, No Iterations 8
smoothSolver:  Solving for Uy, Initial residual = 0.00677499, Final residual = 0.000575197, No Iterations 7
smoothSolver:  Solving for Uz, Initial residual = 0.00580815, Final residual = 0.000514773, No Iterations 7
DICPCG:  Solving for p, Initial residual = 0.00232782, Final residual = 2.30435e-05, No Iterations 30
time step continuity errors : sum local = 4.36573e-05, global = -4.712e-06, cumulative = 0.00108265
smoothSolver:  Solving for omega, Initial residual = 2.76953e-05, Final residual = 1.55964e-06, No Iterations 2
smoothSolver:  Solving for k, Initial residual = 0.000219319, Final residual = 1.34013e-05, No Iterations 2
ExecutionTime = 593.082 s  ClockTime = 594 s

forceCoeffs forceCoeffs1 write:
    Cm    = 0.158787
    Cd    = 0.416193
    Cl    = 0.0625403
    Cl(f) = 0.190057
    Cl(r) = -0.127516

Time = 487s

smoothSolver:  Solving for Ux, Initial residual = 0.000301371, Final residual = 2.27477e-05, No Iterations 8
smoothSolver:  Solving for Uy, Initial residual = 0.00672783, Final residual = 0.000574931, No Iterations 7
smoothSolver:  Solving for Uz, Initial residual = 0.0057283, Final residual = 0.000505653, No Iterations 7
DICPCG:  Solving for p, Initial residual = 0.00232901, Final residual = 2.2779e-05, No Iterations 30
time step continuity errors : sum local = 4.31642e-05, global = -5.5741e-06, cumulative = 0.00107708
smoothSolver:  Solving for omega, Initial residual = 2.74598e-05, Final residual = 1.54265e-06, No Iterations 2
smoothSolver:  Solving for k, Initial residual = 0.000218449, Final residual = 1.31328e-05, No Iterations 2
ExecutionTime = 594.304 s  ClockTime = 595 s

forceCoeffs forceCoeffs1 write:
    Cm    = 0.158918
    Cd    = 0.416485
    Cl    = 0.0623011
    Cl(f) = 0.190068
    Cl(r) = -0.127767

Time = 488s

smoothSolver:  Solving for Ux, Initial residual = 0.000299764, Final residual = 2.99334e-05, No Iterations 7
smoothSolver:  Solving for Uy, Initial residual = 0.00662449, Final residual = 0.000565335, No Iterations 7
smoothSolver:  Solving for Uz, Initial residual = 0.0056633, Final residual = 0.000496931, No Iterations 7
DICPCG:  Solving for p, Initial residual = 0.0023219, Final residual = 2.30563e-05, No Iterations 25
time step continuity errors : sum local = 4.36965e-05, global = -6.29685e-06, cumulative = 0.00107078
smoothSolver:  Solving for omega, Initial residual = 2.71318e-05, Final residual = 1.53262e-06, No Iterations 2
smoothSolver:  Solving for k, Initial residual = 0.000218426, Final residual = 1.3054e-05, No Iterations 2
ExecutionTime = 595.489 s  ClockTime = 596 s

forceCoeffs forceCoeffs1 write:
    Cm    = 0.158925
    Cd    = 0.416643
    Cl    = 0.0621446
    Cl(f) = 0.189997
    Cl(r) = -0.127852

Time = 489s

smoothSolver:  Solving for Ux, Initial residual = 0.000296742, Final residual = 2.92201e-05, No Iterations 7
smoothSolver:  Solving for Uy, Initial residual = 0.00652402, Final residual = 0.000550085, No Iterations 7
smoothSolver:  Solving for Uz, Initial residual = 0.00554854, Final residual = 0.000481933, No Iterations 7
DICPCG:  Solving for p, Initial residual = 0.00232807, Final residual = 2.22772e-05, No Iterations 26
time step continuity errors : sum local = 4.22356e-05, global = -5.57798e-06, cumulative = 0.0010652
smoothSolver:  Solving for omega, Initial residual = 2.69353e-05, Final residual = 1.51698e-06, No Iterations 2
smoothSolver:  Solving for k, Initial residual = 0.00021864, Final residual = 1.30504e-05, No Iterations 2
ExecutionTime = 596.623 s  ClockTime = 597 s

forceCoeffs forceCoeffs1 write:
    Cm    = 0.158769
    Cd    = 0.416516
    Cl    = 0.0619371
    Cl(f) = 0.189738
    Cl(r) = -0.127801

Time = 490s

smoothSolver:  Solving for Ux, Initial residual = 0.000294257, Final residual = 2.84643e-05, No Iterations 7
smoothSolver:  Solving for Uy, Initial residual = 0.00643098, Final residual = 0.000534397, No Iterations 7
smoothSolver:  Solving for Uz, Initial residual = 0.00546266, Final residual = 0.00046745, No Iterations 7
DICPCG:  Solving for p, Initial residual = 0.0023237, Final residual = 2.22651e-05, No Iterations 26
time step continuity errors : sum local = 4.22302e-05, global = -3.9112e-06, cumulative = 0.00106129
smoothSolver:  Solving for omega, Initial residual = 2.67108e-05, Final residual = 1.50108e-06, No Iterations 2
smoothSolver:  Solving for k, Initial residual = 0.000217277, Final residual = 1.29573e-05, No Iterations 2
ExecutionTime = 597.798 s  ClockTime = 598 s

forceCoeffs forceCoeffs1 write:
    Cm    = 0.158556
    Cd    = 0.416301
    Cl    = 0.0617045
    Cl(f) = 0.189408
    Cl(r) = -0.127704

Time = 491s

smoothSolver:  Solving for Ux, Initial residual = 0.000290508, Final residual = 2.7981e-05, No Iterations 7
smoothSolver:  Solving for Uy, Initial residual = 0.00636163, Final residual = 0.000518687, No Iterations 7
smoothSolver:  Solving for Uz, Initial residual = 0.00539589, Final residual = 0.000455312, No Iterations 7
DICPCG:  Solving for p, Initial residual = 0.00231991, Final residual = 2.25667e-05, No Iterations 29
time step continuity errors : sum local = 4.28228e-05, global = -1.27628e-06, cumulative = 0.00106001
smoothSolver:  Solving for omega, Initial residual = 2.64186e-05, Final residual = 1.48334e-06, No Iterations 2
smoothSolver:  Solving for k, Initial residual = 0.000215621, Final residual = 1.28763e-05, No Iterations 2
ExecutionTime = 598.979 s  ClockTime = 600 s

forceCoeffs forceCoeffs1 write:
    Cm    = 0.158243
    Cd    = 0.415916
    Cl    = 0.0614488
    Cl(f) = 0.188967
    Cl(r) = -0.127519

Time = 492s

smoothSolver:  Solving for Ux, Initial residual = 0.000288601, Final residual = 2.78358e-05, No Iterations 7
smoothSolver:  Solving for Uy, Initial residual = 0.0063594, Final residual = 0.000514654, No Iterations 7
smoothSolver:  Solving for Uz, Initial residual = 0.00537601, Final residual = 0.000451894, No Iterations 7
DICPCG:  Solving for p, Initial residual = 0.00231603, Final residual = 2.25121e-05, No Iterations 32
time step continuity errors : sum local = 4.27338e-05, global = 1.45453e-06, cumulative = 0.00106147
smoothSolver:  Solving for omega, Initial residual = 2.61402e-05, Final residual = 1.45635e-06, No Iterations 2
smoothSolver:  Solving for k, Initial residual = 0.000214875, Final residual = 1.2697e-05, No Iterations 2
ExecutionTime = 600.218 s  ClockTime = 601 s

forceCoeffs forceCoeffs1 write:
    Cm    = 0.157939
    Cd    = 0.415511
    Cl    = 0.0613312
    Cl(f) = 0.188605
    Cl(r) = -0.127274

Time = 493s

smoothSolver:  Solving for Ux, Initial residual = 0.000287924, Final residual = 2.79457e-05, No Iterations 7
smoothSolver:  Solving for Uy, Initial residual = 0.00632928, Final residual = 0.000515579, No Iterations 7
smoothSolver:  Solving for Uz, Initial residual = 0.00536696, Final residual = 0.000455627, No Iterations 7
DICPCG:  Solving for p, Initial residual = 0.00231423, Final residual = 2.28921e-05, No Iterations 27
time step continuity errors : sum local = 4.34755e-05, global = 3.58363e-06, cumulative = 0.00106505
smoothSolver:  Solving for omega, Initial residual = 2.58483e-05, Final residual = 1.4278e-06, No Iterations 2
smoothSolver:  Solving for k, Initial residual = 0.000216, Final residual = 1.25722e-05, No Iterations 2
ExecutionTime = 601.39 s  ClockTime = 602 s

forceCoeffs forceCoeffs1 write:
    Cm    = 0.157626
    Cd    = 0.415128
    Cl    = 0.0612475
    Cl(f) = 0.188249
    Cl(r) = -0.127002

Time = 494s

smoothSolver:  Solving for Ux, Initial residual = 0.000286474, Final residual = 2.81606e-05, No Iterations 7
smoothSolver:  Solving for Uy, Initial residual = 0.00628749, Final residual = 0.000519233, No Iterations 7
smoothSolver:  Solving for Uz, Initial residual = 0.00537036, Final residual = 0.000460888, No Iterations 7
DICPCG:  Solving for p, Initial residual = 0.00230542, Final residual = 2.16573e-05, No Iterations 27
time step continuity errors : sum local = 4.1141e-05, global = 4.56392e-06, cumulative = 0.00106962
smoothSolver:  Solving for omega, Initial residual = 2.56898e-05, Final residual = 1.41442e-06, No Iterations 2
smoothSolver:  Solving for k, Initial residual = 0.000218884, Final residual = 1.26469e-05, No Iterations 2
ExecutionTime = 602.598 s  ClockTime = 603 s

forceCoeffs forceCoeffs1 write:
    Cm    = 0.157404
    Cd    = 0.414822
    Cl    = 0.0612609
    Cl(f) = 0.188034
    Cl(r) = -0.126773

Time = 495s

smoothSolver:  Solving for Ux, Initial residual = 0.000285277, Final residual = 2.8139e-05, No Iterations 7
smoothSolver:  Solving for Uy, Initial residual = 0.00624003, Final residual = 0.000524482, No Iterations 7
smoothSolver:  Solving for Uz, Initial residual = 0.00535154, Final residual = 0.00046308, No Iterations 7
DICPCG:  Solving for p, Initial residual = 0.00228602, Final residual = 2.18077e-05, No Iterations 25
time step continuity errors : sum local = 4.14361e-05, global = 5.02992e-06, cumulative = 0.00107465
smoothSolver:  Solving for omega, Initial residual = 2.54446e-05, Final residual = 1.40567e-06, No Iterations 2
smoothSolver:  Solving for k, Initial residual = 0.000222163, Final residual = 1.29116e-05, No Iterations 2
ExecutionTime = 603.76 s  ClockTime = 604 s

forceCoeffs forceCoeffs1 write:
    Cm    = 0.157243
    Cd    = 0.414602
    Cl    = 0.0612949
    Cl(f) = 0.187891
    Cl(r) = -0.126596

Time = 496s

smoothSolver:  Solving for Ux, Initial residual = 0.000283497, Final residual = 2.79166e-05, No Iterations 7
smoothSolver:  Solving for Uy, Initial residual = 0.00620647, Final residual = 0.000522471, No Iterations 7
smoothSolver:  Solving for Uz, Initial residual = 0.00531205, Final residual = 0.000458775, No Iterations 7
DICPCG:  Solving for p, Initial residual = 0.00226347, Final residual = 2.19553e-05, No Iterations 24
time step continuity errors : sum local = 4.17163e-05, global = 4.29474e-06, cumulative = 0.00107894
smoothSolver:  Solving for omega, Initial residual = 2.52771e-05, Final residual = 1.40488e-06, No Iterations 2
smoothSolver:  Solving for k, Initial residual = 0.000226884, Final residual = 1.32095e-05, No Iterations 2
ExecutionTime = 604.913 s  ClockTime = 606 s

forceCoeffs forceCoeffs1 write:
    Cm    = 0.15725
    Cd    = 0.414577
    Cl    = 0.0614444
    Cl(f) = 0.187973
    Cl(r) = -0.126528

Time = 497s

smoothSolver:  Solving for Ux, Initial residual = 0.000283086, Final residual = 2.77074e-05, No Iterations 7
smoothSolver:  Solving for Uy, Initial residual = 0.00619118, Final residual = 0.000518511, No Iterations 7
smoothSolver:  Solving for Uz, Initial residual = 0.00525461, Final residual = 0.000449481, No Iterations 7
DICPCG:  Solving for p, Initial residual = 0.00224091, Final residual = 2.20291e-05, No Iterations 26
time step continuity errors : sum local = 4.18487e-05, global = 2.00366e-06, cumulative = 0.00108094
smoothSolver:  Solving for omega, Initial residual = 2.54017e-05, Final residual = 1.41275e-06, No Iterations 2
smoothSolver:  Solving for k, Initial residual = 0.000230318, Final residual = 1.35335e-05, No Iterations 2
ExecutionTime = 606.044 s  ClockTime = 607 s

forceCoeffs forceCoeffs1 write:
    Cm    = 0.157365
    Cd    = 0.414705
    Cl    = 0.0615706
    Cl(f) = 0.18815
    Cl(r) = -0.126579

Time = 498s

smoothSolver:  Solving for Ux, Initial residual = 0.000283525, Final residual = 2.75949e-05, No Iterations 7
smoothSolver:  Solving for Uy, Initial residual = 0.00616934, Final residual = 0.00051166, No Iterations 7
smoothSolver:  Solving for Uz, Initial residual = 0.00523504, Final residual = 0.000443449, No Iterations 7
DICPCG:  Solving for p, Initial residual = 0.00222167, Final residual = 2.09952e-05, No Iterations 31
time step continuity errors : sum local = 3.98683e-05, global = -1.03972e-06, cumulative = 0.0010799
smoothSolver:  Solving for omega, Initial residual = 2.55459e-05, Final residual = 1.42359e-06, No Iterations 2
smoothSolver:  Solving for k, Initial residual = 0.000232744, Final residual = 1.37058e-05, No Iterations 2
ExecutionTime = 607.267 s  ClockTime = 608 s

forceCoeffs forceCoeffs1 write:
    Cm    = 0.157616
    Cd    = 0.415046
    Cl    = 0.0617767
    Cl(f) = 0.188504
    Cl(r) = -0.126728

Time = 499s

smoothSolver:  Solving for Ux, Initial residual = 0.000282804, Final residual = 2.74515e-05, No Iterations 7
smoothSolver:  Solving for Uy, Initial residual = 0.00610298, Final residual = 0.000503437, No Iterations 7
smoothSolver:  Solving for Uz, Initial residual = 0.00518598, Final residual = 0.00043848, No Iterations 7
DICPCG:  Solving for p, Initial residual = 0.00220167, Final residual = 2.14552e-05, No Iterations 31
time step continuity errors : sum local = 4.07233e-05, global = -3.46342e-06, cumulative = 0.00107644
smoothSolver:  Solving for omega, Initial residual = 2.56955e-05, Final residual = 1.43057e-06, No Iterations 2
smoothSolver:  Solving for k, Initial residual = 0.000235081, Final residual = 1.3855e-05, No Iterations 2
ExecutionTime = 608.499 s  ClockTime = 609 s

forceCoeffs forceCoeffs1 write:
    Cm    = 0.157872
    Cd    = 0.415392
    Cl    = 0.0619707
    Cl(f) = 0.188858
    Cl(r) = -0.126887

Time = 500s

smoothSolver:  Solving for Ux, Initial residual = 0.00028034, Final residual = 2.7325e-05, No Iterations 7
smoothSolver:  Solving for Uy, Initial residual = 0.00605385, Final residual = 0.000500426, No Iterations 7
smoothSolver:  Solving for Uz, Initial residual = 0.005159, Final residual = 0.000441392, No Iterations 7
DICPCG:  Solving for p, Initial residual = 0.00218118, Final residual = 2.15413e-05, No Iterations 29
time step continuity errors : sum local = 4.08654e-05, global = -6.02527e-06, cumulative = 0.00107042
smoothSolver:  Solving for omega, Initial residual = 2.55981e-05, Final residual = 1.41275e-06, No Iterations 2
smoothSolver:  Solving for k, Initial residual = 0.000235992, Final residual = 1.39154e-05, No Iterations 2
ExecutionTime = 609.72 s  ClockTime = 610 s

streamlines streamlines write:
    Seeded 20 particles
    Sampled 19807 locations
forceCoeffs forceCoeffs1 write:
    Cm    = 0.158213
    Cd    = 0.415843
    Cl    = 0.0621825
    Cl(f) = 0.189304
    Cl(r) = -0.127121

End

